3alpha-ACETOXYDIHYDRODEOXYGEDUNIN
 OpenBabel09062217423D

 77 81  0  0  1  0  0  0  0  0999 V2000
  148.5440  171.5200  173.3610 C   0  0  2  0  0  0  0  0  0  0  0  0
  149.7810  171.2390  174.2100 C   0  0  0  0  0  0  0  0  0  0  0  0
  149.7100  172.0700  175.4800 C   0  0  0  0  0  0  0  0  0  0  0  0
  148.4120  171.8690  176.3560 C   0  0  1  0  0  0  0  0  0  0  0  0
  147.1210  171.3790  175.5360 C   0  0  2  0  0  0  0  0  0  0  0  0
  146.2330  170.4110  176.3630 C   0  0  0  0  0  0  0  0  0  0  0  0
  146.1130  170.8160  177.8360 C   0  0  2  0  0  0  0  0  0  0  0  0
  147.4870  170.6580  178.6140 C   0  0  1  0  0  0  0  0  0  0  0  0
  147.5460  169.2860  179.3810 C   0  0  0  0  0  0  0  0  0  0  0  0
  146.6790  169.0610  180.4090 C   0  0  0  0  0  0  0  0  0  0  0  0
  146.7940  167.8750  181.2660 C   0  0  0  0  0  0  0  0  0  0  0  0
  145.8700  167.5730  182.0650 O   0  0  0  0  0  0  0  0  0  0  0  0
  147.9380  167.0920  181.1930 O   0  0  0  0  0  0  0  0  0  0  0  0
  149.0590  167.5420  180.4370 C   0  0  2  0  0  0  0  0  0  0  0  0
  148.5780  168.1780  179.0830 C   0  0  2  0  0  0  0  0  0  0  0  0
  149.8050  168.7600  178.3640 C   0  0  0  0  0  0  0  0  0  0  0  0
  149.4190  169.6120  177.1740 C   0  0  0  0  0  0  0  0  0  0  0  0
  148.7210  170.9180  177.6130 C   0  0  1  0  0  0  0  0  0  0  0  0
  147.2800  170.9000  174.0140 C   0  0  0  0  0  0  0  0  0  0  0  0
  148.3980  172.6240  173.2920 H   0  0  0  0  0  0  0  0  0  0  0  0
  149.8960  170.1620  174.4310 H   0  0  0  0  0  0  0  0  0  0  0  0
  150.6930  171.5410  173.6510 H   0  0  0  0  0  0  0  0  0  0  0  0
  150.6310  171.9160  176.0810 H   0  0  0  0  0  0  0  0  0  0  0  0
  149.8230  173.1240  175.1360 H   0  0  0  0  0  0  0  0  0  0  0  0
  146.4750  172.2830  175.4580 H   0  0  0  0  0  0  0  0  0  0  0  0
  146.6120  169.3770  176.3350 H   0  0  0  0  0  0  0  0  0  0  0  0
  145.2200  170.3850  175.9090 H   0  0  0  0  0  0  0  0  0  0  0  0
  145.7860  171.8740  177.8720 H   0  0  0  0  0  0  0  0  0  0  0  0
  145.9100  169.7730  180.6730 H   0  0  0  0  0  0  0  0  0  0  0  0
  149.5620  168.3340  181.0390 H   0  0  0  0  0  0  0  0  0  0  0  0
  150.4110  169.3770  179.0660 H   0  0  0  0  0  0  0  0  0  0  0  0
  150.4640  167.9370  178.0060 H   0  0  0  0  0  0  0  0  0  0  0  0
  150.3720  169.8260  176.6540 H   0  0  0  0  0  0  0  0  0  0  0  0
  148.8010  169.0310  176.4760 H   0  0  0  0  0  0  0  0  0  0  0  0
  149.5110  171.4440  178.1990 H   0  0  0  0  0  0  0  0  0  0  0  0
  150.0360  166.4040  180.2740 C   0  0  0  0  0  0  0  0  0  0  0  0
  151.3870  166.4980  180.0080 C   0  0  0  0  0  0  0  0  0  0  0  0
  151.8490  165.1990  179.9750 C   0  0  0  0  0  0  0  0  0  0  0  0
  150.8580  164.3680  180.2060 O   0  0  0  0  0  0  0  0  0  0  0  0
  149.7560  165.0580  180.3900 C   0  0  0  0  0  0  0  0  0  0  0  0
  151.9670  167.4000  179.8610 H   0  0  0  0  0  0  0  0  0  0  0  0
  152.8710  164.8940  179.7910 H   0  0  0  0  0  0  0  0  0  0  0  0
  148.7890  164.6220  180.6020 H   0  0  0  0  0  0  0  0  0  0  0  0
  148.1250  173.3170  176.8810 C   0  0  0  0  0  0  0  0  0  0  0  0
  147.1840  173.7200  176.4480 H   0  0  0  0  0  0  0  0  0  0  0  0
  148.0130  173.3210  177.9880 H   0  0  0  0  0  0  0  0  0  0  0  0
  148.9430  174.0300  176.6970 H   0  0  0  0  0  0  0  0  0  0  0  0
  147.5580  171.7460  179.7370 C   0  0  0  0  0  0  0  0  0  0  0  0
  148.3690  172.4780  179.6100 H   0  0  0  0  0  0  0  0  0  0  0  0
  146.6190  172.3350  179.8000 H   0  0  0  0  0  0  0  0  0  0  0  0
  147.7390  171.2710  180.7260 H   0  0  0  0  0  0  0  0  0  0  0  0
  147.8990  167.0890  178.2100 C   0  0  0  0  0  0  0  0  0  0  0  0
  148.0580  166.0760  178.6360 H   0  0  0  0  0  0  0  0  0  0  0  0
  146.8050  167.2620  178.1310 H   0  0  0  0  0  0  0  0  0  0  0  0
  148.2920  167.0820  177.1770 H   0  0  0  0  0  0  0  0  0  0  0  0
  146.0540  171.3990  173.1990 C   0  0  0  0  0  0  0  0  0  0  0  0
  146.3080  171.5210  172.1240 H   0  0  0  0  0  0  0  0  0  0  0  0
  145.2100  170.6790  173.2680 H   0  0  0  0  0  0  0  0  0  0  0  0
  145.6980  172.3830  173.5740 H   0  0  0  0  0  0  0  0  0  0  0  0
  147.3030  169.3490  173.8420 C   0  0  0  0  0  0  0  0  0  0  0  0
  146.6530  168.8500  174.5910 H   0  0  0  0  0  0  0  0  0  0  0  0
  146.9590  169.0250  172.8470 H   0  0  0  0  0  0  0  0  0  0  0  0
  148.3200  168.9380  174.0100 H   0  0  0  0  0  0  0  0  0  0  0  0
  148.7330  171.0100  172.0380 O   0  0  0  0  0  0  0  0  0  0  0  0
  148.7040  171.8040  170.8860 C   0  0  0  0  0  0  0  0  0  0  0  0
  148.7390  171.2820  169.7380 O   0  0  0  0  0  0  0  0  0  0  0  0
  148.6940  173.2890  171.0210 C   0  0  0  0  0  0  0  0  0  0  0  0
  149.7010  173.6940  170.7920 H   0  0  0  0  0  0  0  0  0  0  0  0
  147.9580  173.7190  170.3120 H   0  0  0  0  0  0  0  0  0  0  0  0
  148.4180  173.5760  172.0570 H   0  0  0  0  0  0  0  0  0  0  0  0
  145.0700  170.0410  178.4330 O   0  0  0  0  0  0  0  0  0  0  0  0
  143.8060  170.5450  178.7650 C   0  0  0  0  0  0  0  0  0  0  0  0
  143.4850  170.7490  179.9680 O   0  0  0  0  0  0  0  0  0  0  0  0
  142.8130  170.8000  177.6840 C   0  0  0  0  0  0  0  0  0  0  0  0
  142.9130  170.0330  176.8870 H   0  0  0  0  0  0  0  0  0  0  0  0
  142.9870  171.8040  177.2410 H   0  0  0  0  0  0  0  0  0  0  0  0
  141.7880  170.7550  178.1050 H   0  0  0  0  0  0  0  0  0  0  0  0
  1 20  1  6  0  0  0
  1 19  1  0  0  0  0
  1  2  1  0  0  0  0
  2 21  1  0  0  0  0
  2  3  1  0  0  0  0
  3 23  1  0  0  0  0
  3  4  1  0  0  0  0
  4 44  1  1  0  0  0
  4 18  1  0  0  0  0
  5 25  1  6  0  0  0
  5  4  1  0  0  0  0
  5  6  1  0  0  0  0
  6  7  1  0  0  0  0
  7 28  1  1  0  0  0
  7 71  1  0  0  0  0
  7  8  1  0  0  0  0
  8  9  1  0  0  0  0
  8 48  1  1  0  0  0
  9 10  2  0  0  0  0
 10 29  1  0  0  0  0
 10 11  1  0  0  0  0
 11 12  2  0  0  0  0
 13 11  1  0  0  0  0
 14 30  1  1  0  0  0
 14 13  1  0  0  0  0
 15 52  1  6  0  0  0
 15  9  1  0  0  0  0
 15 14  1  0  0  0  0
 16 31  1  0  0  0  0
 16 15  1  0  0  0  0
 17 18  1  0  0  0  0
 17 16  1  0  0  0  0
 18 35  1  1  0  0  0
 18  8  1  0  0  0  0
 19  5  1  0  0  0  0
 22  2  1  0  0  0  0
 24  3  1  0  0  0  0
 26  6  1  0  0  0  0
 27  6  1  0  0  0  0
 32 16  1  0  0  0  0
 33 17  1  0  0  0  0
 34 17  1  0  0  0  0
 36 40  2  0  0  0  0
 36 14  1  0  0  0  0
 37 36  1  0  0  0  0
 38 37  2  0  0  0  0
 38 39  1  0  0  0  0
 39 40  1  0  0  0  0
 40 43  1  0  0  0  0
 41 37  1  0  0  0  0
 42 38  1  0  0  0  0
 44 46  1  0  0  0  0
 45 44  1  0  0  0  0
 47 44  1  0  0  0  0
 48 50  1  0  0  0  0
 48 51  1  0  0  0  0
 49 48  1  0  0  0  0
 52 53  1  0  0  0  0
 54 52  1  0  0  0  0
 55 52  1  0  0  0  0
 56 58  1  0  0  0  0
 56 59  1  0  0  0  0
 56 19  1  0  0  0  0
 57 56  1  0  0  0  0
 60 63  1  0  0  0  0
 60 19  1  0  0  0  0
 60 61  1  0  0  0  0
 62 60  1  0  0  0  0
 64  1  1  0  0  0  0
 65 67  1  0  0  0  0
 65 64  1  0  0  0  0
 66 65  2  0  0  0  0
 67 70  1  0  0  0  0
 68 67  1  0  0  0  0
 69 67  1  0  0  0  0
 71 72  1  0  0  0  0
 72 73  2  0  0  0  0
 74 77  1  0  0  0  0
 74 72  1  0  0  0  0
 75 74  1  0  0  0  0
 76 74  1  0  0  0  0
M  END
>  <MODEL>
1

>  <REMARK>
 VINA RESULT:      -9.5      0.000      0.000
  Name = 3alpha-ACETOXYDIHYDRODEOXYGEDUNIN
  12 active torsions:
  status: ('A' for Active; 'I' for Inactive)
    1  A    between atoms: C_1  and  C_2
    2  A    between atoms: C_2  and  O_4
    3  A    between atoms: O_4  and  C_5
    4  A    between atoms: C_8  and  C_9
    5  A    between atoms: C_12  and  O_13
    6  A    between atoms: O_13  and  C_14
    7  A    between atoms: C_14  and  C_15
    8  A    between atoms: C_17  and  C_18
    9  A    between atoms: C_24  and  C_25
   10  A    between atoms: C_30  and  C_31
   11  A    between atoms: C_35  and  C_36
   12  A    between atoms: C_35  and  C_37
                            x       y       z     vdW  Elec       q    Type
                         _______ _______ _______ _____ _____    ______ ____

>  <TORSDO>
F 12

>  <vina_affinity>
-9.5

>  <vina_rmsd_lb>
0.000

>  <vina_rmsd_ub>
0.000

$$$$
3alpha-ACETOXYDIHYDRODEOXYGEDUNIN
 OpenBabel09062217423D

 77 81  0  0  1  0  0  0  0  0999 V2000
  148.5390  166.9980  179.4260 C   0  0  2  0  0  0  0  0  0  0  0  0
  147.5170  167.2170  178.3130 C   0  0  0  0  0  0  0  0  0  0  0  0
  146.5130  168.2650  178.7610 C   0  0  0  0  0  0  0  0  0  0  0  0
  147.1240  169.6540  179.1980 C   0  0  1  0  0  0  0  0  0  0  0  0
  148.6370  169.5820  179.7310 C   0  0  2  0  0  0  0  0  0  0  0  0
  149.4600  170.8360  179.3340 C   0  0  0  0  0  0  0  0  0  0  0  0
  148.6590  172.1380  179.4370 C   0  0  2  0  0  0  0  0  0  0  0  0
  147.5020  172.2160  178.3540 C   0  0  1  0  0  0  0  0  0  0  0  0
  147.9650  173.0360  177.0940 C   0  0  0  0  0  0  0  0  0  0  0  0
  148.2360  174.3650  177.2280 C   0  0  0  0  0  0  0  0  0  0  0  0
  148.5110  175.2150  176.0640 C   0  0  0  0  0  0  0  0  0  0  0  0
  148.9650  176.3790  176.2150 O   0  0  0  0  0  0  0  0  0  0  0  0
  148.2530  174.7270  174.7890 O   0  0  0  0  0  0  0  0  0  0  0  0
  147.5580  173.4940  174.6290 C   0  0  2  0  0  0  0  0  0  0  0  0
  148.0770  172.4400  175.6740 C   0  0  2  0  0  0  0  0  0  0  0  0
  147.2150  171.1750  175.5480 C   0  0  0  0  0  0  0  0  0  0  0  0
  147.4690  170.1970  176.6750 C   0  0  0  0  0  0  0  0  0  0  0  0
  146.9530  170.7390  178.0260 C   0  0  1  0  0  0  0  0  0  0  0  0
  149.4770  168.2270  179.5560 C   0  0  0  0  0  0  0  0  0  0  0  0
  147.9960  166.8670  180.3920 H   0  0  0  0  0  0  0  0  0  0  0  0
  148.0000  167.4930  177.3570 H   0  0  0  0  0  0  0  0  0  0  0  0
  146.9670  166.2710  178.1220 H   0  0  0  0  0  0  0  0  0  0  0  0
  145.7330  168.3930  177.9810 H   0  0  0  0  0  0  0  0  0  0  0  0
  145.9460  167.7790  179.5890 H   0  0  0  0  0  0  0  0  0  0  0  0
  148.5530  169.6940  180.8360 H   0  0  0  0  0  0  0  0  0  0  0  0
  149.8470  170.7660  178.3050 H   0  0  0  0  0  0  0  0  0  0  0  0
  150.3480  170.9000  179.9980 H   0  0  0  0  0  0  0  0  0  0  0  0
  148.2200  172.1870  180.4530 H   0  0  0  0  0  0  0  0  0  0  0  0
  148.2040  174.8600  178.1880 H   0  0  0  0  0  0  0  0  0  0  0  0
  146.4820  173.6950  174.8390 H   0  0  0  0  0  0  0  0  0  0  0  0
  146.1330  171.4400  175.5400 H   0  0  0  0  0  0  0  0  0  0  0  0
  147.4290  170.6610  174.5840 H   0  0  0  0  0  0  0  0  0  0  0  0
  146.9270  169.2770  176.3830 H   0  0  0  0  0  0  0  0  0  0  0  0
  148.5350  169.9360  176.7170 H   0  0  0  0  0  0  0  0  0  0  0  0
  145.8530  170.8290  177.8600 H   0  0  0  0  0  0  0  0  0  0  0  0
  147.6670  173.0460  173.1930 C   0  0  0  0  0  0  0  0  0  0  0  0
  146.7730  172.2570  172.4960 C   0  0  0  0  0  0  0  0  0  0  0  0
  147.2920  172.1470  171.2230 C   0  0  0  0  0  0  0  0  0  0  0  0
  148.4190  172.8180  171.1420 O   0  0  0  0  0  0  0  0  0  0  0  0
  148.6720  173.3700  172.3060 C   0  0  0  0  0  0  0  0  0  0  0  0
  145.8550  171.8200  172.8660 H   0  0  0  0  0  0  0  0  0  0  0  0
  146.8490  171.5950  170.4040 H   0  0  0  0  0  0  0  0  0  0  0  0
  149.5380  173.9840  172.5170 H   0  0  0  0  0  0  0  0  0  0  0  0
  146.2100  170.0670  180.4010 C   0  0  0  0  0  0  0  0  0  0  0  0
  146.8080  170.2050  181.3280 H   0  0  0  0  0  0  0  0  0  0  0  0
  145.6900  171.0280  180.1910 H   0  0  0  0  0  0  0  0  0  0  0  0
  145.3880  169.3620  180.6020 H   0  0  0  0  0  0  0  0  0  0  0  0
  146.3100  173.0380  178.9480 C   0  0  0  0  0  0  0  0  0  0  0  0
  145.3150  172.6610  178.6690 H   0  0  0  0  0  0  0  0  0  0  0  0
  146.3320  173.0540  180.0580 H   0  0  0  0  0  0  0  0  0  0  0  0
  146.3430  174.0880  178.5830 H   0  0  0  0  0  0  0  0  0  0  0  0
  149.5680  172.1170  175.3890 C   0  0  0  0  0  0  0  0  0  0  0  0
  150.0390  172.9100  174.7700 H   0  0  0  0  0  0  0  0  0  0  0  0
  150.1470  172.0260  176.3310 H   0  0  0  0  0  0  0  0  0  0  0  0
  149.6880  171.1580  174.8510 H   0  0  0  0  0  0  0  0  0  0  0  0
  150.3440  168.0060  180.8280 C   0  0  0  0  0  0  0  0  0  0  0  0
  151.1450  167.2570  180.6440 H   0  0  0  0  0  0  0  0  0  0  0  0
  150.8330  168.9520  181.1460 H   0  0  0  0  0  0  0  0  0  0  0  0
  149.7260  167.6370  181.6750 H   0  0  0  0  0  0  0  0  0  0  0  0
  150.4780  168.2590  178.3600 C   0  0  0  0  0  0  0  0  0  0  0  0
  151.4920  168.5660  178.6890 H   0  0  0  0  0  0  0  0  0  0  0  0
  150.5800  167.2810  177.8630 H   0  0  0  0  0  0  0  0  0  0  0  0
  150.1730  169.0070  177.5970 H   0  0  0  0  0  0  0  0  0  0  0  0
  149.2930  165.8090  179.1700 O   0  0  0  0  0  0  0  0  0  0  0  0
  149.8130  164.9860  180.1760 C   0  0  0  0  0  0  0  0  0  0  0  0
  149.1740  164.7900  181.2460 O   0  0  0  0  0  0  0  0  0  0  0  0
  151.1650  164.3830  180.0030 C   0  0  0  0  0  0  0  0  0  0  0  0
  151.9460  165.1380  180.2330 H   0  0  0  0  0  0  0  0  0  0  0  0
  151.2760  163.5210  180.6920 H   0  0  0  0  0  0  0  0  0  0  0  0
  151.2970  164.0370  178.9560 H   0  0  0  0  0  0  0  0  0  0  0  0
  149.5680  173.2360  179.3280 O   0  0  0  0  0  0  0  0  0  0  0  0
  150.2700  173.7880  180.4060 C   0  0  0  0  0  0  0  0  0  0  0  0
  151.3220  174.4580  180.2190 O   0  0  0  0  0  0  0  0  0  0  0  0
  149.7910  173.5400  181.7950 C   0  0  0  0  0  0  0  0  0  0  0  0
  148.6810  173.5400  181.8190 H   0  0  0  0  0  0  0  0  0  0  0  0
  150.1670  174.3360  182.4710 H   0  0  0  0  0  0  0  0  0  0  0  0
  150.1630  172.5540  182.1440 H   0  0  0  0  0  0  0  0  0  0  0  0
  1 19  1  0  0  0  0
  1 20  1  1  0  0  0
  2  3  1  0  0  0  0
  2  1  1  0  0  0  0
  3  4  1  0  0  0  0
  3 24  1  0  0  0  0
  4  5  1  0  0  0  0
  4 44  1  1  0  0  0
  5 25  1  1  0  0  0
  6  7  1  0  0  0  0
  6  5  1  0  0  0  0
  6 27  1  0  0  0  0
  7 28  1  1  0  0  0
  8 48  1  1  0  0  0
  8  7  1  0  0  0  0
  9 10  2  0  0  0  0
  9  8  1  0  0  0  0
 10 29  1  0  0  0  0
 11 12  2  0  0  0  0
 11 10  1  0  0  0  0
 13 11  1  0  0  0  0
 14 13  1  0  0  0  0
 14 30  1  1  0  0  0
 14 15  1  0  0  0  0
 15 52  1  6  0  0  0
 15  9  1  0  0  0  0
 16 15  1  0  0  0  0
 16 17  1  0  0  0  0
 17 34  1  0  0  0  0
 17 18  1  0  0  0  0
 18 35  1  6  0  0  0
 18  8  1  0  0  0  0
 18  4  1  0  0  0  0
 19  5  1  0  0  0  0
 19 56  1  0  0  0  0
 21  2  1  0  0  0  0
 22  2  1  0  0  0  0
 23  3  1  0  0  0  0
 26  6  1  0  0  0  0
 31 16  1  0  0  0  0
 32 16  1  0  0  0  0
 33 17  1  0  0  0  0
 36 14  1  0  0  0  0
 37 41  1  0  0  0  0
 37 36  1  0  0  0  0
 38 37  2  0  0  0  0
 39 38  1  0  0  0  0
 39 40  1  0  0  0  0
 40 43  1  0  0  0  0
 40 36  2  0  0  0  0
 42 38  1  0  0  0  0
 44 47  1  0  0  0  0
 44 45  1  0  0  0  0
 46 44  1  0  0  0  0
 48 50  1  0  0  0  0
 49 48  1  0  0  0  0
 51 48  1  0  0  0  0
 52 54  1  0  0  0  0
 53 52  1  0  0  0  0
 55 52  1  0  0  0  0
 56 58  1  0  0  0  0
 56 59  1  0  0  0  0
 57 56  1  0  0  0  0
 60 61  1  0  0  0  0
 60 19  1  0  0  0  0
 62 60  1  0  0  0  0
 63 60  1  0  0  0  0
 64  1  1  0  0  0  0
 64 65  1  0  0  0  0
 65 66  2  0  0  0  0
 67 65  1  0  0  0  0
 67 68  1  0  0  0  0
 67 69  1  0  0  0  0
 70 67  1  0  0  0  0
 71  7  1  0  0  0  0
 71 72  1  0  0  0  0
 72 74  1  0  0  0  0
 73 72  2  0  0  0  0
 74 75  1  0  0  0  0
 74 77  1  0  0  0  0
 74 76  1  0  0  0  0
M  END
>  <MODEL>
2

>  <REMARK>
 VINA RESULT:      -8.3      2.576      7.993
  Name = 3alpha-ACETOXYDIHYDRODEOXYGEDUNIN
  12 active torsions:
  status: ('A' for Active; 'I' for Inactive)
    1  A    between atoms: C_1  and  C_2
    2  A    between atoms: C_2  and  O_4
    3  A    between atoms: O_4  and  C_5
    4  A    between atoms: C_8  and  C_9
    5  A    between atoms: C_12  and  O_13
    6  A    between atoms: O_13  and  C_14
    7  A    between atoms: C_14  and  C_15
    8  A    between atoms: C_17  and  C_18
    9  A    between atoms: C_24  and  C_25
   10  A    between atoms: C_30  and  C_31
   11  A    between atoms: C_35  and  C_36
   12  A    between atoms: C_35  and  C_37
                            x       y       z     vdW  Elec       q    Type
                         _______ _______ _______ _____ _____    ______ ____

>  <TORSDO>
F 12

>  <vina_affinity>
-8.3

>  <vina_rmsd_lb>
2.576

>  <vina_rmsd_ub>
7.993

$$$$
3alpha-ACETOXYDIHYDRODEOXYGEDUNIN
 OpenBabel09062217423D

 77 81  0  0  1  0  0  0  0  0999 V2000
  145.6020  168.6120  179.4460 C   0  0  2  0  0  0  0  0  0  0  0  0
  146.7890  169.2240  180.1870 C   0  0  0  0  0  0  0  0  0  0  0  0
  148.0540  168.9730  179.3850 C   0  0  0  0  0  0  0  0  0  0  0  0
  148.0360  169.4960  177.8950 C   0  0  1  0  0  0  0  0  0  0  0  0
  146.5720  169.6010  177.2420 C   0  0  2  0  0  0  0  0  0  0  0  0
  146.4450  170.8100  176.2770 C   0  0  0  0  0  0  0  0  0  0  0  0
  147.6970  171.0300  175.4230 C   0  0  2  0  0  0  0  0  0  0  0  0
  148.9390  171.5020  176.2900 C   0  0  1  0  0  0  0  0  0  0  0  0
  149.0900  173.0680  176.2520 C   0  0  0  0  0  0  0  0  0  0  0  0
  149.3970  173.6780  175.0720 C   0  0  0  0  0  0  0  0  0  0  0  0
  149.7130  175.1090  175.0060 C   0  0  0  0  0  0  0  0  0  0  0  0
  149.7820  175.6970  173.8950 O   0  0  0  0  0  0  0  0  0  0  0  0
  149.9450  175.8090  176.1830 O   0  0  0  0  0  0  0  0  0  0  0  0
  150.0600  175.1060  177.4160 C   0  0  2  0  0  0  0  0  0  0  0  0
  148.9730  173.9730  177.4970 C   0  0  2  0  0  0  0  0  0  0  0  0
  149.2170  173.1650  178.7800 C   0  0  0  0  0  0  0  0  0  0  0  0
  148.3840  171.9020  178.8260 C   0  0  0  0  0  0  0  0  0  0  0  0
  148.8480  170.8750  177.7700 C   0  0  1  0  0  0  0  0  0  0  0  0
  145.2740  169.4300  178.1690 C   0  0  0  0  0  0  0  0  0  0  0  0
  145.8660  167.5730  179.1410 H   0  0  0  0  0  0  0  0  0  0  0  0
  146.6390  170.3010  180.3910 H   0  0  0  0  0  0  0  0  0  0  0  0
  146.9040  168.7330  181.1770 H   0  0  0  0  0  0  0  0  0  0  0  0
  148.9330  169.3660  179.9400 H   0  0  0  0  0  0  0  0  0  0  0  0
  148.2110  167.8710  179.4400 H   0  0  0  0  0  0  0  0  0  0  0  0
  146.5100  168.7350  176.5460 H   0  0  0  0  0  0  0  0  0  0  0  0
  146.2440  171.7490  176.8170 H   0  0  0  0  0  0  0  0  0  0  0  0
  145.5740  170.6400  175.6110 H   0  0  0  0  0  0  0  0  0  0  0  0
  147.9390  170.0730  174.9200 H   0  0  0  0  0  0  0  0  0  0  0  0
  149.4780  173.1240  174.1480 H   0  0  0  0  0  0  0  0  0  0  0  0
  151.0670  174.6270  177.4270 H   0  0  0  0  0  0  0  0  0  0  0  0
  150.2920  172.8890  178.8680 H   0  0  0  0  0  0  0  0  0  0  0  0
  148.9680  173.7810  179.6730 H   0  0  0  0  0  0  0  0  0  0  0  0
  148.5190  171.5070  179.8510 H   0  0  0  0  0  0  0  0  0  0  0  0
  147.3180  172.1470  178.7200 H   0  0  0  0  0  0  0  0  0  0  0  0
  149.8910  170.6380  178.0880 H   0  0  0  0  0  0  0  0  0  0  0  0
  150.0120  176.0920  178.5560 C   0  0  0  0  0  0  0  0  0  0  0  0
  150.5880  175.9530  179.8030 C   0  0  0  0  0  0  0  0  0  0  0  0
  150.2910  177.1180  180.4790 C   0  0  0  0  0  0  0  0  0  0  0  0
  149.5860  177.9140  179.7070 O   0  0  0  0  0  0  0  0  0  0  0  0
  149.4020  177.3300  178.5460 C   0  0  0  0  0  0  0  0  0  0  0  0
  151.1590  175.1110  180.1730 H   0  0  0  0  0  0  0  0  0  0  0  0
  150.5870  177.3550  181.4930 H   0  0  0  0  0  0  0  0  0  0  0  0
  148.8560  177.7670  177.7200 H   0  0  0  0  0  0  0  0  0  0  0  0
  148.8220  168.3780  177.1300 C   0  0  0  0  0  0  0  0  0  0  0  0
  148.2650  168.0420  176.2290 H   0  0  0  0  0  0  0  0  0  0  0  0
  149.8130  168.7540  176.7900 H   0  0  0  0  0  0  0  0  0  0  0  0
  149.0720  167.5030  177.7490 H   0  0  0  0  0  0  0  0  0  0  0  0
  150.2500  170.9590  175.6300 C   0  0  0  0  0  0  0  0  0  0  0  0
  151.1300  170.9730  176.2910 H   0  0  0  0  0  0  0  0  0  0  0  0
  150.1370  169.9080  175.2920 H   0  0  0  0  0  0  0  0  0  0  0  0
  150.5290  171.5810  174.7520 H   0  0  0  0  0  0  0  0  0  0  0  0
  147.5580  174.6120  177.5130 C   0  0  0  0  0  0  0  0  0  0  0  0
  146.8240  173.9750  176.9760 H   0  0  0  0  0  0  0  0  0  0  0  0
  147.1940  174.7560  178.5520 H   0  0  0  0  0  0  0  0  0  0  0  0
  147.5490  175.6090  177.0340 H   0  0  0  0  0  0  0  0  0  0  0  0
  144.1970  168.6310  177.3810 C   0  0  0  0  0  0  0  0  0  0  0  0
  143.1910  168.7520  177.8390 H   0  0  0  0  0  0  0  0  0  0  0  0
  144.1330  168.9810  176.3280 H   0  0  0  0  0  0  0  0  0  0  0  0
  144.4320  167.5450  177.3690 H   0  0  0  0  0  0  0  0  0  0  0  0
  144.5990  170.7800  178.5620 C   0  0  0  0  0  0  0  0  0  0  0  0
  143.5620  170.6230  178.9250 H   0  0  0  0  0  0  0  0  0  0  0  0
  145.1440  171.3140  179.3570 H   0  0  0  0  0  0  0  0  0  0  0  0
  144.5090  171.4570  177.6860 H   0  0  0  0  0  0  0  0  0  0  0  0
  144.4650  168.5500  180.3140 O   0  0  0  0  0  0  0  0  0  0  0  0
  144.5330  168.7390  181.6990 C   0  0  0  0  0  0  0  0  0  0  0  0
  144.8630  167.7940  182.4660 O   0  0  0  0  0  0  0  0  0  0  0  0
  144.1490  170.0590  182.2770 C   0  0  0  0  0  0  0  0  0  0  0  0
  144.7930  170.2900  183.1500 H   0  0  0  0  0  0  0  0  0  0  0  0
  144.2780  170.8500  181.5090 H   0  0  0  0  0  0  0  0  0  0  0  0
  143.0890  170.0370  182.6070 H   0  0  0  0  0  0  0  0  0  0  0  0
  147.3800  171.9680  174.3910 O   0  0  0  0  0  0  0  0  0  0  0  0
  147.2800  171.6420  173.0330 C   0  0  0  0  0  0  0  0  0  0  0  0
  146.1610  171.6200  172.4520 O   0  0  0  0  0  0  0  0  0  0  0  0
  148.5100  171.2710  172.2780 C   0  0  0  0  0  0  0  0  0  0  0  0
  148.7260  172.0380  171.5040 H   0  0  0  0  0  0  0  0  0  0  0  0
  148.3660  170.2890  171.7810 H   0  0  0  0  0  0  0  0  0  0  0  0
  149.3690  171.2080  172.9770 H   0  0  0  0  0  0  0  0  0  0  0  0
  1 20  1  6  0  0  0
  1  2  1  0  0  0  0
  1 64  1  0  0  0  0
  2 21  1  0  0  0  0
  2 22  1  0  0  0  0
  3 24  1  0  0  0  0
  3 23  1  0  0  0  0
  3  2  1  0  0  0  0
  4 44  1  6  0  0  0
  4  3  1  0  0  0  0
  5 25  1  6  0  0  0
  5  4  1  0  0  0  0
  5 19  1  0  0  0  0
  6 26  1  0  0  0  0
  6  5  1  0  0  0  0
  7 28  1  6  0  0  0
  7  6  1  0  0  0  0
  7  8  1  0  0  0  0
  8 48  1  6  0  0  0
  8 18  1  0  0  0  0
  9  8  1  0  0  0  0
  9 15  1  0  0  0  0
 10  9  2  0  0  0  0
 11 10  1  0  0  0  0
 11 13  1  0  0  0  0
 12 11  2  0  0  0  0
 13 14  1  0  0  0  0
 14 30  1  1  0  0  0
 14 15  1  0  0  0  0
 14 36  1  0  0  0  0
 15 52  1  1  0  0  0
 15 16  1  0  0  0  0
 16 17  1  0  0  0  0
 16 31  1  0  0  0  0
 16 32  1  0  0  0  0
 17 33  1  0  0  0  0
 18  4  1  0  0  0  0
 18 35  1  1  0  0  0
 18 17  1  0  0  0  0
 19 60  1  0  0  0  0
 19  1  1  0  0  0  0
 27  6  1  0  0  0  0
 29 10  1  0  0  0  0
 34 17  1  0  0  0  0
 36 37  1  0  0  0  0
 37 41  1  0  0  0  0
 37 38  2  0  0  0  0
 38 42  1  0  0  0  0
 39 38  1  0  0  0  0
 40 36  2  0  0  0  0
 40 39  1  0  0  0  0
 43 40  1  0  0  0  0
 44 47  1  0  0  0  0
 45 44  1  0  0  0  0
 46 44  1  0  0  0  0
 48 49  1  0  0  0  0
 50 48  1  0  0  0  0
 51 48  1  0  0  0  0
 52 54  1  0  0  0  0
 53 52  1  0  0  0  0
 55 52  1  0  0  0  0
 56 57  1  0  0  0  0
 56 19  1  0  0  0  0
 58 56  1  0  0  0  0
 59 56  1  0  0  0  0
 60 61  1  0  0  0  0
 60 62  1  0  0  0  0
 63 60  1  0  0  0  0
 64 65  1  0  0  0  0
 65 67  1  0  0  0  0
 65 66  2  0  0  0  0
 67 70  1  0  0  0  0
 67 68  1  0  0  0  0
 69 67  1  0  0  0  0
 71  7  1  0  0  0  0
 72 71  1  0  0  0  0
 73 72  2  0  0  0  0
 74 77  1  0  0  0  0
 74 72  1  0  0  0  0
 75 74  1  0  0  0  0
 76 74  1  0  0  0  0
M  END
>  <MODEL>
3

>  <REMARK>
 VINA RESULT:      -7.7      3.004      8.010
  Name = 3alpha-ACETOXYDIHYDRODEOXYGEDUNIN
  12 active torsions:
  status: ('A' for Active; 'I' for Inactive)
    1  A    between atoms: C_1  and  C_2
    2  A    between atoms: C_2  and  O_4
    3  A    between atoms: O_4  and  C_5
    4  A    between atoms: C_8  and  C_9
    5  A    between atoms: C_12  and  O_13
    6  A    between atoms: O_13  and  C_14
    7  A    between atoms: C_14  and  C_15
    8  A    between atoms: C_17  and  C_18
    9  A    between atoms: C_24  and  C_25
   10  A    between atoms: C_30  and  C_31
   11  A    between atoms: C_35  and  C_36
   12  A    between atoms: C_35  and  C_37
                            x       y       z     vdW  Elec       q    Type
                         _______ _______ _______ _____ _____    ______ ____

>  <TORSDO>
F 12

>  <vina_affinity>
-7.7

>  <vina_rmsd_lb>
3.004

>  <vina_rmsd_ub>
8.010

$$$$
3alpha-ACETOXYDIHYDRODEOXYGEDUNIN
 OpenBabel09062217423D

 77 81  0  0  1  0  0  0  0  0999 V2000
  149.4000  175.4650  180.3980 C   0  0  2  0  0  0  0  0  0  0  0  0
  150.3700  174.8310  179.4040 C   0  0  0  0  0  0  0  0  0  0  0  0
  150.4980  173.3500  179.7130 C   0  0  0  0  0  0  0  0  0  0  0  0
  149.1460  172.5330  179.7240 C   0  0  1  0  0  0  0  0  0  0  0  0
  147.8410  173.4070  180.0630 C   0  0  2  0  0  0  0  0  0  0  0  0
  146.5920  172.9260  179.2770 C   0  0  0  0  0  0  0  0  0  0  0  0
  146.5030  171.4000  179.1680 C   0  0  2  0  0  0  0  0  0  0  0  0
  147.6500  170.7970  178.2530 C   0  0  1  0  0  0  0  0  0  0  0  0
  147.1350  170.5610  176.7850 C   0  0  0  0  0  0  0  0  0  0  0  0
  146.1610  169.6340  176.5630 C   0  0  0  0  0  0  0  0  0  0  0  0
  145.7580  169.2520  175.2050 C   0  0  0  0  0  0  0  0  0  0  0  0
  144.7220  168.5620  175.0150 O   0  0  0  0  0  0  0  0  0  0  0  0
  146.5380  169.6510  174.1270 O   0  0  0  0  0  0  0  0  0  0  0  0
  147.8060  170.2580  174.3550 C   0  0  2  0  0  0  0  0  0  0  0  0
  147.7110  171.2790  175.5460 C   0  0  2  0  0  0  0  0  0  0  0  0
  149.1240  171.8110  175.8360 C   0  0  0  0  0  0  0  0  0  0  0  0
  149.1810  172.6070  177.1220 C   0  0  0  0  0  0  0  0  0  0  0  0
  148.9750  171.7050  178.3590 C   0  0  1  0  0  0  0  0  0  0  0  0
  147.9450  175.0060  180.1110 C   0  0  0  0  0  0  0  0  0  0  0  0
  149.6750  175.1370  181.4280 H   0  0  0  0  0  0  0  0  0  0  0  0
  150.0620  175.0060  178.3560 H   0  0  0  0  0  0  0  0  0  0  0  0
  151.3730  175.2950  179.5150 H   0  0  0  0  0  0  0  0  0  0  0  0
  151.2430  172.8880  179.0300 H   0  0  0  0  0  0  0  0  0  0  0  0
  151.0190  173.3090  180.6970 H   0  0  0  0  0  0  0  0  0  0  0  0
  147.5820  173.1320  181.1100 H   0  0  0  0  0  0  0  0  0  0  0  0
  146.5670  173.3320  178.2540 H   0  0  0  0  0  0  0  0  0  0  0  0
  145.6840  173.3090  179.7880 H   0  0  0  0  0  0  0  0  0  0  0  0
  146.5840  170.9800  180.1900 H   0  0  0  0  0  0  0  0  0  0  0  0
  145.6870  169.0990  177.3740 H   0  0  0  0  0  0  0  0  0  0  0  0
  148.5110  169.4450  174.6450 H   0  0  0  0  0  0  0  0  0  0  0  0
  149.8500  170.9700  175.9020 H   0  0  0  0  0  0  0  0  0  0  0  0
  149.4630  172.4670  175.0030 H   0  0  0  0  0  0  0  0  0  0  0  0
  150.1870  173.0670  177.1290 H   0  0  0  0  0  0  0  0  0  0  0  0
  148.4560  173.4320  177.0900 H   0  0  0  0  0  0  0  0  0  0  0  0
  149.8490  171.0130  178.3170 H   0  0  0  0  0  0  0  0  0  0  0  0
  148.3080  170.8580  173.0650 C   0  0  0  0  0  0  0  0  0  0  0  0
  147.5620  171.5090  172.1030 C   0  0  0  0  0  0  0  0  0  0  0  0
  148.4640  171.8940  171.1330 C   0  0  0  0  0  0  0  0  0  0  0  0
  149.6740  171.5100  171.4730 O   0  0  0  0  0  0  0  0  0  0  0  0
  149.6160  170.8870  172.6270 C   0  0  0  0  0  0  0  0  0  0  0  0
  146.4940  171.6860  172.1080 H   0  0  0  0  0  0  0  0  0  0  0  0
  148.2260  172.4320  170.2250 H   0  0  0  0  0  0  0  0  0  0  0  0
  150.4720  170.4700  173.1410 H   0  0  0  0  0  0  0  0  0  0  0  0
  149.3660  171.5230  180.9000 C   0  0  0  0  0  0  0  0  0  0  0  0
  148.4260  171.3650  181.4720 H   0  0  0  0  0  0  0  0  0  0  0  0
  149.6940  170.5320  180.5140 H   0  0  0  0  0  0  0  0  0  0  0  0
  150.1690  171.8130  181.5960 H   0  0  0  0  0  0  0  0  0  0  0  0
  148.0170  169.3700  178.7800 C   0  0  0  0  0  0  0  0  0  0  0  0
  148.1560  169.3100  179.8700 H   0  0  0  0  0  0  0  0  0  0  0  0
  147.2340  168.6240  178.5300 H   0  0  0  0  0  0  0  0  0  0  0  0
  148.9790  169.0290  178.3390 H   0  0  0  0  0  0  0  0  0  0  0  0
  146.7580  172.4420  175.1590 C   0  0  0  0  0  0  0  0  0  0  0  0
  146.4990  173.0600  176.0450 H   0  0  0  0  0  0  0  0  0  0  0  0
  147.2210  173.1050  174.3990 H   0  0  0  0  0  0  0  0  0  0  0  0
  145.8120  172.0720  174.7210 H   0  0  0  0  0  0  0  0  0  0  0  0
  147.0630  175.5320  181.2780 C   0  0  0  0  0  0  0  0  0  0  0  0
  147.4430  176.5030  181.6640 H   0  0  0  0  0  0  0  0  0  0  0  0
  146.0140  175.6870  180.9460 H   0  0  0  0  0  0  0  0  0  0  0  0
  147.0520  174.8150  182.1270 H   0  0  0  0  0  0  0  0  0  0  0  0
  147.4130  175.7090  178.8250 C   0  0  0  0  0  0  0  0  0  0  0  0
  148.2280  175.8860  178.0930 H   0  0  0  0  0  0  0  0  0  0  0  0
  146.6340  175.1240  178.3090 H   0  0  0  0  0  0  0  0  0  0  0  0
  146.9980  176.7140  179.0550 H   0  0  0  0  0  0  0  0  0  0  0  0
  149.5030  176.8910  180.3390 O   0  0  0  0  0  0  0  0  0  0  0  0
  150.5150  177.6240  180.9700 C   0  0  0  0  0  0  0  0  0  0  0  0
  151.6290  177.8050  180.4080 O   0  0  0  0  0  0  0  0  0  0  0  0
  150.2900  178.1440  182.3490 C   0  0  0  0  0  0  0  0  0  0  0  0
  151.1170  178.8270  182.6330 H   0  0  0  0  0  0  0  0  0  0  0  0
  149.3310  178.6990  182.3830 H   0  0  0  0  0  0  0  0  0  0  0  0
  150.2540  177.3030  183.0730 H   0  0  0  0  0  0  0  0  0  0  0  0
  145.2010  171.0590  178.6850 O   0  0  0  0  0  0  0  0  0  0  0  0
  144.1530  170.6090  179.4970 C   0  0  0  0  0  0  0  0  0  0  0  0
  142.9560  170.9130  179.2390 O   0  0  0  0  0  0  0  0  0  0  0  0
  144.4620  169.7970  180.7080 C   0  0  0  0  0  0  0  0  0  0  0  0
  145.1270  170.3690  181.3890 H   0  0  0  0  0  0  0  0  0  0  0  0
  144.9720  168.8570  180.4110 H   0  0  0  0  0  0  0  0  0  0  0  0
  143.5190  169.5530  181.2400 H   0  0  0  0  0  0  0  0  0  0  0  0
  1 20  1  1  0  0  0
  2 22  1  0  0  0  0
  2  3  1  0  0  0  0
  2  1  1  0  0  0  0
  3  4  1  0  0  0  0
  3 24  1  0  0  0  0
  4  5  1  0  0  0  0
  4 44  1  1  0  0  0
  5 19  1  0  0  0  0
  5 25  1  1  0  0  0
  6 27  1  0  0  0  0
  6  5  1  0  0  0  0
  7  6  1  0  0  0  0
  7 28  1  1  0  0  0
  8 18  1  0  0  0  0
  8 48  1  1  0  0  0
  8  7  1  0  0  0  0
  9  8  1  0  0  0  0
 10  9  2  0  0  0  0
 10 29  1  0  0  0  0
 11 10  1  0  0  0  0
 12 11  2  0  0  0  0
 13 14  1  0  0  0  0
 13 11  1  0  0  0  0
 14 30  1  1  0  0  0
 14 15  1  0  0  0  0
 15 52  1  6  0  0  0
 15 16  1  0  0  0  0
 15  9  1  0  0  0  0
 16 31  1  0  0  0  0
 16 17  1  0  0  0  0
 17 33  1  0  0  0  0
 17 18  1  0  0  0  0
 18 35  1  6  0  0  0
 18  4  1  0  0  0  0
 19  1  1  0  0  0  0
 19 56  1  0  0  0  0
 21  2  1  0  0  0  0
 23  3  1  0  0  0  0
 26  6  1  0  0  0  0
 32 16  1  0  0  0  0
 34 17  1  0  0  0  0
 36 14  1  0  0  0  0
 37 41  1  0  0  0  0
 37 36  1  0  0  0  0
 38 39  1  0  0  0  0
 38 37  2  0  0  0  0
 39 40  1  0  0  0  0
 40 36  2  0  0  0  0
 40 43  1  0  0  0  0
 42 38  1  0  0  0  0
 44 45  1  0  0  0  0
 44 47  1  0  0  0  0
 46 44  1  0  0  0  0
 48 49  1  0  0  0  0
 50 48  1  0  0  0  0
 51 48  1  0  0  0  0
 52 53  1  0  0  0  0
 54 52  1  0  0  0  0
 55 52  1  0  0  0  0
 56 57  1  0  0  0  0
 56 59  1  0  0  0  0
 58 56  1  0  0  0  0
 60 63  1  0  0  0  0
 60 19  1  0  0  0  0
 61 60  1  0  0  0  0
 62 60  1  0  0  0  0
 64  1  1  0  0  0  0
 64 65  1  0  0  0  0
 65 67  1  0  0  0  0
 66 65  2  0  0  0  0
 67 69  1  0  0  0  0
 67 68  1  0  0  0  0
 67 70  1  0  0  0  0
 71  7  1  0  0  0  0
 71 72  1  0  0  0  0
 72 74  1  0  0  0  0
 73 72  2  0  0  0  0
 74 77  1  0  0  0  0
 74 75  1  0  0  0  0
 76 74  1  0  0  0  0
M  END
>  <MODEL>
4

>  <REMARK>
 VINA RESULT:      -7.7      3.367      7.038
  Name = 3alpha-ACETOXYDIHYDRODEOXYGEDUNIN
  12 active torsions:
  status: ('A' for Active; 'I' for Inactive)
    1  A    between atoms: C_1  and  C_2
    2  A    between atoms: C_2  and  O_4
    3  A    between atoms: O_4  and  C_5
    4  A    between atoms: C_8  and  C_9
    5  A    between atoms: C_12  and  O_13
    6  A    between atoms: O_13  and  C_14
    7  A    between atoms: C_14  and  C_15
    8  A    between atoms: C_17  and  C_18
    9  A    between atoms: C_24  and  C_25
   10  A    between atoms: C_30  and  C_31
   11  A    between atoms: C_35  and  C_36
   12  A    between atoms: C_35  and  C_37
                            x       y       z     vdW  Elec       q    Type
                         _______ _______ _______ _____ _____    ______ ____

>  <TORSDO>
F 12

>  <vina_affinity>
-7.7

>  <vina_rmsd_lb>
3.367

>  <vina_rmsd_ub>
7.038

$$$$
3alpha-ACETOXYDIHYDRODEOXYGEDUNIN
 OpenBabel09062217423D

 77 81  0  0  1  0  0  0  0  0999 V2000
  147.2850  176.7310  182.8850 C   0  0  2  0  0  0  0  0  0  0  0  0
  148.3390  177.0650  181.8320 C   0  0  0  0  0  0  0  0  0  0  0  0
  149.4500  176.0300  181.8980 C   0  0  0  0  0  0  0  0  0  0  0  0
  148.9960  174.5270  181.7320 C   0  0  1  0  0  0  0  0  0  0  0  0
  147.4780  174.2360  182.1670 C   0  0  2  0  0  0  0  0  0  0  0  0
  146.8070  173.1590  181.2730 C   0  0  0  0  0  0  0  0  0  0  0  0
  147.7490  172.0060  180.9120 C   0  0  2  0  0  0  0  0  0  0  0  0
  148.9210  172.4700  179.9490 C   0  0  1  0  0  0  0  0  0  0  0  0
  148.5700  172.1610  178.4460 C   0  0  0  0  0  0  0  0  0  0  0  0
  148.4500  170.8650  178.0440 C   0  0  0  0  0  0  0  0  0  0  0  0
  148.2890  170.5100  176.6290 C   0  0  0  0  0  0  0  0  0  0  0  0
  147.9670  169.3400  176.2960 O   0  0  0  0  0  0  0  0  0  0  0  0
  148.5050  171.4780  175.6570 O   0  0  0  0  0  0  0  0  0  0  0  0
  149.0580  172.7390  176.0220 C   0  0  2  0  0  0  0  0  0  0  0  0
  148.4100  173.2470  177.3610 C   0  0  2  0  0  0  0  0  0  0  0  0
  149.1240  174.5420  177.7790 C   0  0  0  0  0  0  0  0  0  0  0  0
  148.7470  174.9750  179.1790 C   0  0  0  0  0  0  0  0  0  0  0  0
  149.3040  174.0050  180.2450 C   0  0  1  0  0  0  0  0  0  0  0  0
  146.4910  175.4610  182.4800 C   0  0  0  0  0  0  0  0  0  0  0  0
  147.7980  176.5310  183.8550 H   0  0  0  0  0  0  0  0  0  0  0  0
  147.9040  177.1340  180.8170 H   0  0  0  0  0  0  0  0  0  0  0  0
  148.7820  178.0600  182.0490 H   0  0  0  0  0  0  0  0  0  0  0  0
  150.2500  176.2930  181.1730 H   0  0  0  0  0  0  0  0  0  0  0  0
  149.9480  176.2110  182.8780 H   0  0  0  0  0  0  0  0  0  0  0  0
  147.5600  173.7120  183.1460 H   0  0  0  0  0  0  0  0  0  0  0  0
  146.4280  173.5830  180.3300 H   0  0  0  0  0  0  0  0  0  0  0  0
  145.9240  172.7530  181.8110 H   0  0  0  0  0  0  0  0  0  0  0  0
  148.1790  171.6100  181.8540 H   0  0  0  0  0  0  0  0  0  0  0  0
  148.5260  170.0420  178.7400 H   0  0  0  0  0  0  0  0  0  0  0  0
  150.1470  172.5810  176.1970 H   0  0  0  0  0  0  0  0  0  0  0  0
  150.2290  174.4100  177.7290 H   0  0  0  0  0  0  0  0  0  0  0  0
  148.8650  175.3650  177.0760 H   0  0  0  0  0  0  0  0  0  0  0  0
  149.1840  175.9850  179.2940 H   0  0  0  0  0  0  0  0  0  0  0  0
  147.6580  175.0910  179.2590 H   0  0  0  0  0  0  0  0  0  0  0  0
  150.4090  174.0960  180.1180 H   0  0  0  0  0  0  0  0  0  0  0  0
  148.9170  173.6960  174.8640 C   0  0  0  0  0  0  0  0  0  0  0  0
  147.8930  173.7400  173.9400 C   0  0  0  0  0  0  0  0  0  0  0  0
  148.1960  174.7930  173.1020 C   0  0  0  0  0  0  0  0  0  0  0  0
  149.3200  175.3550  173.4830 O   0  0  0  0  0  0  0  0  0  0  0  0
  149.7790  174.7230  174.5380 C   0  0  0  0  0  0  0  0  0  0  0  0
  147.0290  173.0900  173.8840 H   0  0  0  0  0  0  0  0  0  0  0  0
  147.6060  175.1200  172.2560 H   0  0  0  0  0  0  0  0  0  0  0  0
  150.6920  174.9820  175.0590 H   0  0  0  0  0  0  0  0  0  0  0  0
  149.9350  173.7730  182.7330 C   0  0  0  0  0  0  0  0  0  0  0  0
  150.6290  173.0920  182.1950 H   0  0  0  0  0  0  0  0  0  0  0  0
  150.5540  174.4930  183.3130 H   0  0  0  0  0  0  0  0  0  0  0  0
  149.3980  173.2040  183.5080 H   0  0  0  0  0  0  0  0  0  0  0  0
  150.1910  171.6050  180.2470 C   0  0  0  0  0  0  0  0  0  0  0  0
  149.9970  170.7070  180.8530 H   0  0  0  0  0  0  0  0  0  0  0  0
  150.6740  171.2460  179.3140 H   0  0  0  0  0  0  0  0  0  0  0  0
  150.9370  172.1960  180.8210 H   0  0  0  0  0  0  0  0  0  0  0  0
  146.8950  173.5060  177.1390 C   0  0  0  0  0  0  0  0  0  0  0  0
  146.5450  173.0490  176.1890 H   0  0  0  0  0  0  0  0  0  0  0  0
  146.2900  173.0840  177.9680 H   0  0  0  0  0  0  0  0  0  0  0  0
  146.6620  174.5860  177.0960 H   0  0  0  0  0  0  0  0  0  0  0  0
  145.5890  175.0830  183.6880 C   0  0  0  0  0  0  0  0  0  0  0  0
  145.7930  175.7370  184.5630 H   0  0  0  0  0  0  0  0  0  0  0  0
  144.5130  175.1890  183.4300 H   0  0  0  0  0  0  0  0  0  0  0  0
  145.7640  174.0320  184.0070 H   0  0  0  0  0  0  0  0  0  0  0  0
  145.5160  175.7970  181.3100 C   0  0  0  0  0  0  0  0  0  0  0  0
  144.6060  175.1620  181.3460 H   0  0  0  0  0  0  0  0  0  0  0  0
  145.1810  176.8460  181.3200 H   0  0  0  0  0  0  0  0  0  0  0  0
  145.9820  175.5900  180.3230 H   0  0  0  0  0  0  0  0  0  0  0  0
  146.4050  177.8440  183.0640 O   0  0  0  0  0  0  0  0  0  0  0  0
  146.4420  178.6940  184.1750 C   0  0  0  0  0  0  0  0  0  0  0  0
  147.3520  178.5880  185.0420 O   0  0  0  0  0  0  0  0  0  0  0  0
  145.3550  179.6970  184.3660 C   0  0  0  0  0  0  0  0  0  0  0  0
  145.7940  180.6870  184.6080 H   0  0  0  0  0  0  0  0  0  0  0  0
  144.7600  179.7790  183.4340 H   0  0  0  0  0  0  0  0  0  0  0  0
  144.6910  179.3850  185.1990 H   0  0  0  0  0  0  0  0  0  0  0  0
  146.9720  170.9520  180.3390 O   0  0  0  0  0  0  0  0  0  0  0  0
  145.8430  170.3860  180.9440 C   0  0  0  0  0  0  0  0  0  0  0  0
  145.9310  169.7940  182.0540 O   0  0  0  0  0  0  0  0  0  0  0  0
  144.5300  170.4460  180.2420 C   0  0  0  0  0  0  0  0  0  0  0  0
  144.3110  169.4690  179.7620 H   0  0  0  0  0  0  0  0  0  0  0  0
  144.5560  171.2340  179.4610 H   0  0  0  0  0  0  0  0  0  0  0  0
  143.7300  170.6780  180.9750 H   0  0  0  0  0  0  0  0  0  0  0  0
  1 64  1  0  0  0  0
  1 20  1  1  0  0  0
  2  3  1  0  0  0  0
  2 22  1  0  0  0  0
  2  1  1  0  0  0  0
  3 24  1  0  0  0  0
  4  3  1  0  0  0  0
  4  5  1  0  0  0  0
  4 44  1  1  0  0  0
  5 19  1  0  0  0  0
  5 25  1  1  0  0  0
  6 27  1  0  0  0  0
  6  5  1  0  0  0  0
  7  6  1  0  0  0  0
  7 28  1  1  0  0  0
  8 18  1  0  0  0  0
  8 48  1  1  0  0  0
  8  7  1  0  0  0  0
  9  8  1  0  0  0  0
 10  9  2  0  0  0  0
 10 29  1  0  0  0  0
 11 10  1  0  0  0  0
 12 11  2  0  0  0  0
 13 14  1  0  0  0  0
 13 11  1  0  0  0  0
 14 30  1  1  0  0  0
 14 15  1  0  0  0  0
 15 52  1  6  0  0  0
 15 16  1  0  0  0  0
 15  9  1  0  0  0  0
 16 17  1  0  0  0  0
 17 34  1  0  0  0  0
 17 33  1  0  0  0  0
 17 18  1  0  0  0  0
 18 35  1  6  0  0  0
 18  4  1  0  0  0  0
 19  1  1  0  0  0  0
 19 56  1  0  0  0  0
 21  2  1  0  0  0  0
 23  3  1  0  0  0  0
 26  6  1  0  0  0  0
 31 16  1  0  0  0  0
 32 16  1  0  0  0  0
 36 14  1  0  0  0  0
 37 36  1  0  0  0  0
 38 39  1  0  0  0  0
 38 37  2  0  0  0  0
 39 40  1  0  0  0  0
 40 36  2  0  0  0  0
 40 43  1  0  0  0  0
 41 37  1  0  0  0  0
 42 38  1  0  0  0  0
 44 46  1  0  0  0  0
 44 47  1  0  0  0  0
 45 44  1  0  0  0  0
 48 51  1  0  0  0  0
 48 49  1  0  0  0  0
 50 48  1  0  0  0  0
 52 54  1  0  0  0  0
 53 52  1  0  0  0  0
 55 52  1  0  0  0  0
 56 59  1  0  0  0  0
 56 57  1  0  0  0  0
 58 56  1  0  0  0  0
 60 62  1  0  0  0  0
 60 61  1  0  0  0  0
 60 19  1  0  0  0  0
 63 60  1  0  0  0  0
 64 65  1  0  0  0  0
 65 67  1  0  0  0  0
 65 66  2  0  0  0  0
 67 68  1  0  0  0  0
 67 70  1  0  0  0  0
 69 67  1  0  0  0  0
 71  7  1  0  0  0  0
 71 72  1  0  0  0  0
 72 73  2  0  0  0  0
 74 72  1  0  0  0  0
 74 77  1  0  0  0  0
 75 74  1  0  0  0  0
 76 74  1  0  0  0  0
M  END
>  <MODEL>
5

>  <REMARK>
 VINA RESULT:      -7.3      4.283      8.566
  Name = 3alpha-ACETOXYDIHYDRODEOXYGEDUNIN
  12 active torsions:
  status: ('A' for Active; 'I' for Inactive)
    1  A    between atoms: C_1  and  C_2
    2  A    between atoms: C_2  and  O_4
    3  A    between atoms: O_4  and  C_5
    4  A    between atoms: C_8  and  C_9
    5  A    between atoms: C_12  and  O_13
    6  A    between atoms: O_13  and  C_14
    7  A    between atoms: C_14  and  C_15
    8  A    between atoms: C_17  and  C_18
    9  A    between atoms: C_24  and  C_25
   10  A    between atoms: C_30  and  C_31
   11  A    between atoms: C_35  and  C_36
   12  A    between atoms: C_35  and  C_37
                            x       y       z     vdW  Elec       q    Type
                         _______ _______ _______ _____ _____    ______ ____

>  <TORSDO>
F 12

>  <vina_affinity>
-7.3

>  <vina_rmsd_lb>
4.283

>  <vina_rmsd_ub>
8.566

$$$$
3alpha-ACETOXYDIHYDRODEOXYGEDUNIN
 OpenBabel09062217423D

 77 81  0  0  1  0  0  0  0  0999 V2000
  148.0070  167.5340  177.9490 C   0  0  2  0  0  0  0  0  0  0  0  0
  148.2450  168.6670  176.9530 C   0  0  0  0  0  0  0  0  0  0  0  0
  146.9330  169.0070  176.2670 C   0  0  0  0  0  0  0  0  0  0  0  0
  145.7380  169.3890  177.2260 C   0  0  1  0  0  0  0  0  0  0  0  0
  145.8380  168.7610  178.7010 C   0  0  2  0  0  0  0  0  0  0  0  0
  145.2820  169.7210  179.7860 C   0  0  0  0  0  0  0  0  0  0  0  0
  144.0200  170.4660  179.3400 C   0  0  2  0  0  0  0  0  0  0  0  0
  144.3180  171.5070  178.1800 C   0  0  1  0  0  0  0  0  0  0  0  0
  144.5180  172.9560  178.7620 C   0  0  0  0  0  0  0  0  0  0  0  0
  143.4670  173.5830  179.3610 C   0  0  0  0  0  0  0  0  0  0  0  0
  143.5430  174.9900  179.7730 C   0  0  0  0  0  0  0  0  0  0  0  0
  142.6540  175.4890  180.5090 O   0  0  0  0  0  0  0  0  0  0  0  0
  144.6040  175.7700  179.3320 O   0  0  0  0  0  0  0  0  0  0  0  0
  145.4970  175.2620  178.3450 C   0  0  2  0  0  0  0  0  0  0  0  0
  145.8330  173.7550  178.6430 C   0  0  2  0  0  0  0  0  0  0  0  0
  146.6930  173.2180  177.4890 C   0  0  0  0  0  0  0  0  0  0  0  0
  146.8600  171.7150  177.5540 C   0  0  0  0  0  0  0  0  0  0  0  0
  145.5320  170.9810  177.2640 C   0  0  1  0  0  0  0  0  0  0  0  0
  147.1920  168.0410  179.1680 C   0  0  0  0  0  0  0  0  0  0  0  0
  147.4230  166.7290  177.4450 H   0  0  0  0  0  0  0  0  0  0  0  0
  148.6970  169.5540  177.4350 H   0  0  0  0  0  0  0  0  0  0  0  0
  148.9660  168.3350  176.1750 H   0  0  0  0  0  0  0  0  0  0  0  0
  147.1030  169.7930  175.5000 H   0  0  0  0  0  0  0  0  0  0  0  0
  146.6990  168.1120  175.6440 H   0  0  0  0  0  0  0  0  0  0  0  0
  145.0890  167.9370  178.7080 H   0  0  0  0  0  0  0  0  0  0  0  0
  146.0240  170.4780  180.0860 H   0  0  0  0  0  0  0  0  0  0  0  0
  145.0530  169.1300  180.6970 H   0  0  0  0  0  0  0  0  0  0  0  0
  143.2890  169.7140  178.9830 H   0  0  0  0  0  0  0  0  0  0  0  0
  142.5150  173.0910  179.5050 H   0  0  0  0  0  0  0  0  0  0  0  0
  144.9670  175.3160  177.3650 H   0  0  0  0  0  0  0  0  0  0  0  0
  146.2380  173.4860  176.5080 H   0  0  0  0  0  0  0  0  0  0  0  0
  147.7030  173.6840  177.5150 H   0  0  0  0  0  0  0  0  0  0  0  0
  147.6210  171.4780  176.7860 H   0  0  0  0  0  0  0  0  0  0  0  0
  147.2880  171.4230  178.5230 H   0  0  0  0  0  0  0  0  0  0  0  0
  145.3020  171.2790  176.2140 H   0  0  0  0  0  0  0  0  0  0  0  0
  146.7060  176.1600  178.2590 C   0  0  0  0  0  0  0  0  0  0  0  0
  147.4660  176.4290  177.1390 C   0  0  0  0  0  0  0  0  0  0  0  0
  148.4360  177.3180  177.5550 C   0  0  0  0  0  0  0  0  0  0  0  0
  148.2830  177.5770  178.8340 O   0  0  0  0  0  0  0  0  0  0  0  0
  147.2540  176.9000  179.2870 C   0  0  0  0  0  0  0  0  0  0  0  0
  147.3300  176.0330  176.1410 H   0  0  0  0  0  0  0  0  0  0  0  0
  149.2110  177.7460  176.9340 H   0  0  0  0  0  0  0  0  0  0  0  0
  146.9020  176.9310  180.3100 H   0  0  0  0  0  0  0  0  0  0  0  0
  144.5040  168.7400  176.5110 C   0  0  0  0  0  0  0  0  0  0  0  0
  143.8870  169.5110  176.0010 H   0  0  0  0  0  0  0  0  0  0  0  0
  144.8340  168.0090  175.7400 H   0  0  0  0  0  0  0  0  0  0  0  0
  143.8620  168.1450  177.1790 H   0  0  0  0  0  0  0  0  0  0  0  0
  143.0540  171.6170  177.2640 C   0  0  0  0  0  0  0  0  0  0  0  0
  142.1040  171.3910  177.7720 H   0  0  0  0  0  0  0  0  0  0  0  0
  142.9390  172.6370  176.8400 H   0  0  0  0  0  0  0  0  0  0  0  0
  143.1200  170.8940  176.4230 H   0  0  0  0  0  0  0  0  0  0  0  0
  146.5990  173.6510  179.9900 C   0  0  0  0  0  0  0  0  0  0  0  0
  146.3530  172.7070  180.5190 H   0  0  0  0  0  0  0  0  0  0  0  0
  147.6970  173.6810  179.8300 H   0  0  0  0  0  0  0  0  0  0  0  0
  146.3550  174.4890  180.6700 H   0  0  0  0  0  0  0  0  0  0  0  0
  146.8280  166.7930  180.0220 C   0  0  0  0  0  0  0  0  0  0  0  0
  147.6460  166.0410  180.0040 H   0  0  0  0  0  0  0  0  0  0  0  0
  146.6510  167.0750  181.0830 H   0  0  0  0  0  0  0  0  0  0  0  0
  145.9080  166.3000  179.6400 H   0  0  0  0  0  0  0  0  0  0  0  0
  148.0950  168.9300  180.0770 C   0  0  0  0  0  0  0  0  0  0  0  0
  148.9120  169.4050  179.4950 H   0  0  0  0  0  0  0  0  0  0  0  0
  147.5370  169.7390  180.5740 H   0  0  0  0  0  0  0  0  0  0  0  0
  148.6010  168.3250  180.8600 H   0  0  0  0  0  0  0  0  0  0  0  0
  149.2590  166.9830  178.3690 O   0  0  0  0  0  0  0  0  0  0  0  0
  149.5630  165.6180  178.3210 C   0  0  0  0  0  0  0  0  0  0  0  0
  150.0720  165.0330  179.3160 O   0  0  0  0  0  0  0  0  0  0  0  0
  149.3400  164.8620  177.0560 C   0  0  0  0  0  0  0  0  0  0  0  0
  149.0450  165.5620  176.2470 H   0  0  0  0  0  0  0  0  0  0  0  0
  150.2760  164.3430  176.7660 H   0  0  0  0  0  0  0  0  0  0  0  0
  148.5320  164.1140  177.1960 H   0  0  0  0  0  0  0  0  0  0  0  0
  143.4390  171.0950  180.4850 O   0  0  0  0  0  0  0  0  0  0  0  0
  143.8600  170.8760  181.8020 C   0  0  0  0  0  0  0  0  0  0  0  0
  143.5330  169.8270  182.4220 O   0  0  0  0  0  0  0  0  0  0  0  0
  144.6680  171.9190  182.4950 C   0  0  0  0  0  0  0  0  0  0  0  0
  144.0870  172.8630  182.5690 H   0  0  0  0  0  0  0  0  0  0  0  0
  145.6000  172.1140  181.9240 H   0  0  0  0  0  0  0  0  0  0  0  0
  144.9260  171.5700  183.5160 H   0  0  0  0  0  0  0  0  0  0  0  0
  1 20  1  6  0  0  0
  1 64  1  0  0  0  0
  1 19  1  0  0  0  0
  2 21  1  0  0  0  0
  2  1  1  0  0  0  0
  3  2  1  0  0  0  0
  3  4  1  0  0  0  0
  4 44  1  6  0  0  0
  4 18  1  0  0  0  0
  4  5  1  0  0  0  0
  5 25  1  6  0  0  0
  5 19  1  0  0  0  0
  5  6  1  0  0  0  0
  6 26  1  0  0  0  0
  6 27  1  0  0  0  0
  7 28  1  6  0  0  0
  7  6  1  0  0  0  0
  7 71  1  0  0  0  0
  8 48  1  6  0  0  0
  8  9  1  0  0  0  0
  8  7  1  0  0  0  0
  9 10  2  0  0  0  0
 10 29  1  0  0  0  0
 10 11  1  0  0  0  0
 11 12  2  0  0  0  0
 13 11  1  0  0  0  0
 14 30  1  6  0  0  0
 14 15  1  0  0  0  0
 14 13  1  0  0  0  0
 15  9  1  0  0  0  0
 15 52  1  1  0  0  0
 16 32  1  0  0  0  0
 16 17  1  0  0  0  0
 16 15  1  0  0  0  0
 17 34  1  0  0  0  0
 18 35  1  6  0  0  0
 18 17  1  0  0  0  0
 18  8  1  0  0  0  0
 19 56  1  0  0  0  0
 19 60  1  0  0  0  0
 22  2  1  0  0  0  0
 23  3  1  0  0  0  0
 24  3  1  0  0  0  0
 31 16  1  0  0  0  0
 33 17  1  0  0  0  0
 36 14  1  0  0  0  0
 36 40  2  0  0  0  0
 37 38  2  0  0  0  0
 37 36  1  0  0  0  0
 38 39  1  0  0  0  0
 39 40  1  0  0  0  0
 40 43  1  0  0  0  0
 41 37  1  0  0  0  0
 42 38  1  0  0  0  0
 44 47  1  0  0  0  0
 45 44  1  0  0  0  0
 46 44  1  0  0  0  0
 48 49  1  0  0  0  0
 50 48  1  0  0  0  0
 51 48  1  0  0  0  0
 52 53  1  0  0  0  0
 52 55  1  0  0  0  0
 54 52  1  0  0  0  0
 56 58  1  0  0  0  0
 57 56  1  0  0  0  0
 59 56  1  0  0  0  0
 60 62  1  0  0  0  0
 60 63  1  0  0  0  0
 61 60  1  0  0  0  0
 65 64  1  0  0  0  0
 65 66  2  0  0  0  0
 67 70  1  0  0  0  0
 67 65  1  0  0  0  0
 68 67  1  0  0  0  0
 69 67  1  0  0  0  0
 71 72  1  0  0  0  0
 72 73  2  0  0  0  0
 72 74  1  0  0  0  0
 74 75  1  0  0  0  0
 74 77  1  0  0  0  0
 76 74  1  0  0  0  0
M  END
>  <MODEL>
6

>  <REMARK>
 VINA RESULT:      -7.3      3.332      7.367
  Name = 3alpha-ACETOXYDIHYDRODEOXYGEDUNIN
  12 active torsions:
  status: ('A' for Active; 'I' for Inactive)
    1  A    between atoms: C_1  and  C_2
    2  A    between atoms: C_2  and  O_4
    3  A    between atoms: O_4  and  C_5
    4  A    between atoms: C_8  and  C_9
    5  A    between atoms: C_12  and  O_13
    6  A    between atoms: O_13  and  C_14
    7  A    between atoms: C_14  and  C_15
    8  A    between atoms: C_17  and  C_18
    9  A    between atoms: C_24  and  C_25
   10  A    between atoms: C_30  and  C_31
   11  A    between atoms: C_35  and  C_36
   12  A    between atoms: C_35  and  C_37
                            x       y       z     vdW  Elec       q    Type
                         _______ _______ _______ _____ _____    ______ ____

>  <TORSDO>
F 12

>  <vina_affinity>
-7.3

>  <vina_rmsd_lb>
3.332

>  <vina_rmsd_ub>
7.367

$$$$
3alpha-ACETOXYDIHYDRODEOXYGEDUNIN
 OpenBabel09062217423D

 77 81  0  0  1  0  0  0  0  0999 V2000
  147.1850  167.5180  180.6640 C   0  0  2  0  0  0  0  0  0  0  0  0
  148.4290  168.3360  181.0030 C   0  0  0  0  0  0  0  0  0  0  0  0
  149.3660  168.3300  179.8080 C   0  0  0  0  0  0  0  0  0  0  0  0
  148.7480  168.8490  178.4510 C   0  0  1  0  0  0  0  0  0  0  0  0
  147.1540  168.6830  178.3360 C   0  0  2  0  0  0  0  0  0  0  0  0
  146.4970  169.8540  177.5570 C   0  0  0  0  0  0  0  0  0  0  0  0
  147.3220  170.3080  176.3480 C   0  0  2  0  0  0  0  0  0  0  0  0
  148.6840  170.9980  176.7790 C   0  0  1  0  0  0  0  0  0  0  0  0
  148.5400  172.5640  176.8010 C   0  0  0  0  0  0  0  0  0  0  0  0
  148.3130  173.2280  175.6320 C   0  0  0  0  0  0  0  0  0  0  0  0
  148.3340  174.6930  175.5620 C   0  0  0  0  0  0  0  0  0  0  0  0
  147.9160  175.2910  174.5370 O   0  0  0  0  0  0  0  0  0  0  0  0
  148.8310  175.4180  176.6390 O   0  0  0  0  0  0  0  0  0  0  0  0
  149.4820  174.7410  177.7100 C   0  0  2  0  0  0  0  0  0  0  0  0
  148.7020  173.4250  178.0720 C   0  0  2  0  0  0  0  0  0  0  0  0
  149.5070  172.6680  179.1400 C   0  0  0  0  0  0  0  0  0  0  0  0
  148.9720  171.2720  179.3750 C   0  0  0  0  0  0  0  0  0  0  0  0
  149.2170  170.3560  178.1560 C   0  0  1  0  0  0  0  0  0  0  0  0
  146.3030  168.2680  179.6300 C   0  0  0  0  0  0  0  0  0  0  0  0
  147.5040  166.5480  180.2160 H   0  0  0  0  0  0  0  0  0  0  0  0
  148.1750  169.3650  181.3200 H   0  0  0  0  0  0  0  0  0  0  0  0
  148.9600  167.8690  181.8600 H   0  0  0  0  0  0  0  0  0  0  0  0
  150.3000  168.8770  180.0610 H   0  0  0  0  0  0  0  0  0  0  0  0
  149.7200  167.2760  179.7300 H   0  0  0  0  0  0  0  0  0  0  0  0
  147.0080  167.8250  177.6420 H   0  0  0  0  0  0  0  0  0  0  0  0
  146.3340  170.7350  178.1960 H   0  0  0  0  0  0  0  0  0  0  0  0
  145.4930  169.5280  177.2110 H   0  0  0  0  0  0  0  0  0  0  0  0
  147.5380  169.4150  175.7290 H   0  0  0  0  0  0  0  0  0  0  0  0
  148.1660  172.7040  174.6980 H   0  0  0  0  0  0  0  0  0  0  0  0
  150.4980  174.4580  177.3490 H   0  0  0  0  0  0  0  0  0  0  0  0
  150.5780  172.5970  178.8420 H   0  0  0  0  0  0  0  0  0  0  0  0
  149.4770  173.2220  180.1050 H   0  0  0  0  0  0  0  0  0  0  0  0
  149.5170  170.9030  180.2650 H   0  0  0  0  0  0  0  0  0  0  0  0
  147.9100  171.3150  179.6500 H   0  0  0  0  0  0  0  0  0  0  0  0
  150.3300  170.3160  178.0880 H   0  0  0  0  0  0  0  0  0  0  0  0
  149.6580  175.6940  178.8650 C   0  0  0  0  0  0  0  0  0  0  0  0
  150.5710  175.5950  179.8950 C   0  0  0  0  0  0  0  0  0  0  0  0
  150.3620  176.7070  180.6840 C   0  0  0  0  0  0  0  0  0  0  0  0
  149.3930  177.4360  180.1770 O   0  0  0  0  0  0  0  0  0  0  0  0
  148.9490  176.8570  179.0850 C   0  0  0  0  0  0  0  0  0  0  0  0
  151.3040  174.8130  180.0520 H   0  0  0  0  0  0  0  0  0  0  0  0
  150.9050  176.9560  181.5860 H   0  0  0  0  0  0  0  0  0  0  0  0
  148.1530  177.2480  178.4650 H   0  0  0  0  0  0  0  0  0  0  0  0
  149.4050  167.9020  177.3900 C   0  0  0  0  0  0  0  0  0  0  0  0
  149.6070  168.4430  176.4410 H   0  0  0  0  0  0  0  0  0  0  0  0
  150.3750  167.5040  177.7630 H   0  0  0  0  0  0  0  0  0  0  0  0
  148.8170  166.9970  177.1720 H   0  0  0  0  0  0  0  0  0  0  0  0
  149.7630  170.7120  175.6810 C   0  0  0  0  0  0  0  0  0  0  0  0
  150.1910  171.6150  175.2200 H   0  0  0  0  0  0  0  0  0  0  0  0
  150.6210  170.1370  176.0860 H   0  0  0  0  0  0  0  0  0  0  0  0
  149.3190  170.1330  174.8420 H   0  0  0  0  0  0  0  0  0  0  0  0
  147.2910  173.7890  178.6070 C   0  0  0  0  0  0  0  0  0  0  0  0
  147.2880  173.8610  179.7150 H   0  0  0  0  0  0  0  0  0  0  0  0
  146.9450  174.7610  178.1980 H   0  0  0  0  0  0  0  0  0  0  0  0
  146.5330  173.0370  178.3190 H   0  0  0  0  0  0  0  0  0  0  0  0
  145.1770  167.2870  179.1970 C   0  0  0  0  0  0  0  0  0  0  0  0
  144.2720  167.8380  178.8580 H   0  0  0  0  0  0  0  0  0  0  0  0
  145.5130  166.6400  178.3580 H   0  0  0  0  0  0  0  0  0  0  0  0
  144.8730  166.6280  180.0390 H   0  0  0  0  0  0  0  0  0  0  0  0
  145.5820  169.4660  180.3200 C   0  0  0  0  0  0  0  0  0  0  0  0
  145.9700  169.6360  181.3460 H   0  0  0  0  0  0  0  0  0  0  0  0
  145.7000  170.4120  179.7670 H   0  0  0  0  0  0  0  0  0  0  0  0
  144.4950  169.2680  180.4430 H   0  0  0  0  0  0  0  0  0  0  0  0
  146.4440  167.2400  181.8560 O   0  0  0  0  0  0  0  0  0  0  0  0
  146.8690  166.3450  182.8450 C   0  0  0  0  0  0  0  0  0  0  0  0
  146.6090  166.5530  184.0620 O   0  0  0  0  0  0  0  0  0  0  0  0
  147.6940  165.1650  182.4590 C   0  0  0  0  0  0  0  0  0  0  0  0
  147.6380  164.3900  183.2510 H   0  0  0  0  0  0  0  0  0  0  0  0
  147.3110  164.7420  181.5070 H   0  0  0  0  0  0  0  0  0  0  0  0
  148.7540  165.4670  182.3260 H   0  0  0  0  0  0  0  0  0  0  0  0
  146.5130  171.1760  175.5510 O   0  0  0  0  0  0  0  0  0  0  0  0
  145.8830  170.7940  174.3600 C   0  0  0  0  0  0  0  0  0  0  0  0
  144.8840  170.0230  174.3730 O   0  0  0  0  0  0  0  0  0  0  0  0
  146.4300  171.2690  173.0580 C   0  0  0  0  0  0  0  0  0  0  0  0
  147.4880  171.5820  173.1820 H   0  0  0  0  0  0  0  0  0  0  0  0
  145.8380  172.1340  172.6940 H   0  0  0  0  0  0  0  0  0  0  0  0
  146.3790  170.4470  172.3140 H   0  0  0  0  0  0  0  0  0  0  0  0
  1 20  1  6  0  0  0
  1  2  1  0  0  0  0
  1 64  1  0  0  0  0
  2 21  1  0  0  0  0
  2 22  1  0  0  0  0
  3 23  1  0  0  0  0
  3  2  1  0  0  0  0
  4 44  1  6  0  0  0
  4  3  1  0  0  0  0
  5 25  1  6  0  0  0
  5  4  1  0  0  0  0
  5 19  1  0  0  0  0
  6 26  1  0  0  0  0
  6  5  1  0  0  0  0
  7 28  1  6  0  0  0
  7  8  1  0  0  0  0
  7  6  1  0  0  0  0
  8 48  1  6  0  0  0
  8  9  1  0  0  0  0
  8 18  1  0  0  0  0
  9 15  1  0  0  0  0
 10  9  2  0  0  0  0
 11 10  1  0  0  0  0
 11 13  1  0  0  0  0
 12 11  2  0  0  0  0
 13 14  1  0  0  0  0
 14 30  1  6  0  0  0
 14 15  1  0  0  0  0
 14 36  1  0  0  0  0
 15 52  1  1  0  0  0
 15 16  1  0  0  0  0
 16 17  1  0  0  0  0
 16 32  1  0  0  0  0
 17 34  1  0  0  0  0
 17 33  1  0  0  0  0
 18 35  1  6  0  0  0
 18  4  1  0  0  0  0
 18 17  1  0  0  0  0
 19 60  1  0  0  0  0
 19  1  1  0  0  0  0
 24  3  1  0  0  0  0
 27  6  1  0  0  0  0
 29 10  1  0  0  0  0
 31 16  1  0  0  0  0
 36 40  2  0  0  0  0
 36 37  1  0  0  0  0
 37 41  1  0  0  0  0
 37 38  2  0  0  0  0
 38 42  1  0  0  0  0
 39 38  1  0  0  0  0
 40 39  1  0  0  0  0
 43 40  1  0  0  0  0
 44 46  1  0  0  0  0
 45 44  1  0  0  0  0
 47 44  1  0  0  0  0
 48 50  1  0  0  0  0
 49 48  1  0  0  0  0
 51 48  1  0  0  0  0
 52 53  1  0  0  0  0
 54 52  1  0  0  0  0
 55 52  1  0  0  0  0
 56 19  1  0  0  0  0
 56 59  1  0  0  0  0
 57 56  1  0  0  0  0
 58 56  1  0  0  0  0
 60 63  1  0  0  0  0
 60 61  1  0  0  0  0
 62 60  1  0  0  0  0
 64 65  1  0  0  0  0
 65 66  2  0  0  0  0
 67 65  1  0  0  0  0
 67 68  1  0  0  0  0
 69 67  1  0  0  0  0
 70 67  1  0  0  0  0
 71  7  1  0  0  0  0
 72 73  2  0  0  0  0
 72 71  1  0  0  0  0
 74 75  1  0  0  0  0
 74 72  1  0  0  0  0
 76 74  1  0  0  0  0
 77 74  1  0  0  0  0
M  END
>  <MODEL>
7

>  <REMARK>
 VINA RESULT:      -7.3      2.938      7.971
  Name = 3alpha-ACETOXYDIHYDRODEOXYGEDUNIN
  12 active torsions:
  status: ('A' for Active; 'I' for Inactive)
    1  A    between atoms: C_1  and  C_2
    2  A    between atoms: C_2  and  O_4
    3  A    between atoms: O_4  and  C_5
    4  A    between atoms: C_8  and  C_9
    5  A    between atoms: C_12  and  O_13
    6  A    between atoms: O_13  and  C_14
    7  A    between atoms: C_14  and  C_15
    8  A    between atoms: C_17  and  C_18
    9  A    between atoms: C_24  and  C_25
   10  A    between atoms: C_30  and  C_31
   11  A    between atoms: C_35  and  C_36
   12  A    between atoms: C_35  and  C_37
                            x       y       z     vdW  Elec       q    Type
                         _______ _______ _______ _____ _____    ______ ____

>  <TORSDO>
F 12

>  <vina_affinity>
-7.3

>  <vina_rmsd_lb>
2.938

>  <vina_rmsd_ub>
7.971

$$$$
3alpha-ACETOXYDIHYDRODEOXYGEDUNIN
 OpenBabel09062217423D

 77 81  0  0  1  0  0  0  0  0999 V2000
  148.8810  171.8710  173.0010 C   0  0  2  0  0  0  0  0  0  0  0  0
  149.4690  170.8280  173.9490 C   0  0  0  0  0  0  0  0  0  0  0  0
  150.2520  171.5370  175.0400 C   0  0  0  0  0  0  0  0  0  0  0  0
  149.4490  172.6130  175.8710 C   0  0  1  0  0  0  0  0  0  0  0  0
  148.2100  173.2720  175.0890 C   0  0  2  0  0  0  0  0  0  0  0  0
  147.0160  173.5770  176.0320 C   0  0  0  0  0  0  0  0  0  0  0  0
  147.4520  174.1180  177.3980 C   0  0  2  0  0  0  0  0  0  0  0  0
  148.2090  173.0230  178.2610 C   0  0  1  0  0  0  0  0  0  0  0  0
  147.2260  172.3200  179.2680 C   0  0  0  0  0  0  0  0  0  0  0  0
  146.6690  173.0520  180.2740 C   0  0  0  0  0  0  0  0  0  0  0  0
  145.8790  172.4220  181.3380 C   0  0  0  0  0  0  0  0  0  0  0  0
  145.1990  173.1240  182.1310 O   0  0  0  0  0  0  0  0  0  0  0  0
  145.8960  171.0390  181.4690 O   0  0  0  0  0  0  0  0  0  0  0  0
  146.8130  170.2650  180.7020 C   0  0  2  0  0  0  0  0  0  0  0  0
  146.8880  170.8140  179.2310 C   0  0  2  0  0  0  0  0  0  0  0  0
  147.9780  170.0320  178.4820 C   0  0  0  0  0  0  0  0  0  0  0  0
  148.3010  170.6500  177.1380 C   0  0  0  0  0  0  0  0  0  0  0  0
  149.0090  172.0140  177.2940 C   0  0  1  0  0  0  0  0  0  0  0  0
  147.7310  172.6510  173.6910 C   0  0  0  0  0  0  0  0  0  0  0  0
  149.6820  172.5970  172.7240 H   0  0  0  0  0  0  0  0  0  0  0  0
  148.6900  170.1650  174.3690 H   0  0  0  0  0  0  0  0  0  0  0  0
  150.1700  170.1710  173.3920 H   0  0  0  0  0  0  0  0  0  0  0  0
  150.7310  170.7870  175.7060 H   0  0  0  0  0  0  0  0  0  0  0  0
  151.1290  171.9840  174.5150 H   0  0  0  0  0  0  0  0  0  0  0  0
  148.5600  174.2930  174.8140 H   0  0  0  0  0  0  0  0  0  0  0  0
  146.3950  172.6860  176.2130 H   0  0  0  0  0  0  0  0  0  0  0  0
  146.3570  174.3230  175.5390 H   0  0  0  0  0  0  0  0  0  0  0  0
  148.1240  174.9810  177.2230 H   0  0  0  0  0  0  0  0  0  0  0  0
  146.8340  174.1160  180.3640 H   0  0  0  0  0  0  0  0  0  0  0  0
  147.8160  170.3850  181.1730 H   0  0  0  0  0  0  0  0  0  0  0  0
  148.9100  169.9860  179.0890 H   0  0  0  0  0  0  0  0  0  0  0  0
  147.6490  168.9830  178.3140 H   0  0  0  0  0  0  0  0  0  0  0  0
  148.9600  169.9160  176.6370 H   0  0  0  0  0  0  0  0  0  0  0  0
  147.3920  170.7260  176.5280 H   0  0  0  0  0  0  0  0  0  0  0  0
  149.9600  171.7490  177.8140 H   0  0  0  0  0  0  0  0  0  0  0  0
  146.4360  168.8080  180.8000 C   0  0  0  0  0  0  0  0  0  0  0  0
  147.2580  167.7180  180.5920 C   0  0  0  0  0  0  0  0  0  0  0  0
  146.4690  166.6110  180.8210 C   0  0  0  0  0  0  0  0  0  0  0  0
  145.2540  166.9900  181.1460 O   0  0  0  0  0  0  0  0  0  0  0  0
  145.2000  168.3010  181.1440 C   0  0  0  0  0  0  0  0  0  0  0  0
  148.3040  167.7280  180.3140 H   0  0  0  0  0  0  0  0  0  0  0  0
  146.7880  165.5790  180.7490 H   0  0  0  0  0  0  0  0  0  0  0  0
  144.3150  168.8780  181.3810 H   0  0  0  0  0  0  0  0  0  0  0  0
  150.5180  173.7330  176.1060 C   0  0  0  0  0  0  0  0  0  0  0  0
  151.5180  173.2950  176.3120 H   0  0  0  0  0  0  0  0  0  0  0  0
  150.6150  174.3820  175.2070 H   0  0  0  0  0  0  0  0  0  0  0  0
  150.2580  174.4380  176.9110 H   0  0  0  0  0  0  0  0  0  0  0  0
  149.2650  173.7370  179.1690 C   0  0  0  0  0  0  0  0  0  0  0  0
  149.9450  173.0540  179.6990 H   0  0  0  0  0  0  0  0  0  0  0  0
  149.9140  174.4230  178.5850 H   0  0  0  0  0  0  0  0  0  0  0  0
  148.7580  174.3270  179.9630 H   0  0  0  0  0  0  0  0  0  0  0  0
  145.5110  170.6320  178.5380 C   0  0  0  0  0  0  0  0  0  0  0  0
  145.4290  169.6310  178.0640 H   0  0  0  0  0  0  0  0  0  0  0  0
  144.6790  170.7370  179.2660 H   0  0  0  0  0  0  0  0  0  0  0  0
  145.3400  171.3900  177.7510 H   0  0  0  0  0  0  0  0  0  0  0  0
  147.3310  173.8110  172.7360 C   0  0  0  0  0  0  0  0  0  0  0  0
  147.2240  173.4530  171.6890 H   0  0  0  0  0  0  0  0  0  0  0  0
  146.3610  174.2600  173.0400 H   0  0  0  0  0  0  0  0  0  0  0  0
  148.0980  174.6160  172.7400 H   0  0  0  0  0  0  0  0  0  0  0  0
  146.4690  171.7410  173.8060 C   0  0  0  0  0  0  0  0  0  0  0  0
  146.3550  171.3360  174.8330 H   0  0  0  0  0  0  0  0  0  0  0  0
  145.5360  172.2720  173.5610 H   0  0  0  0  0  0  0  0  0  0  0  0
  146.5490  170.8530  173.1440 H   0  0  0  0  0  0  0  0  0  0  0  0
  148.4180  171.2360  171.8050 O   0  0  0  0  0  0  0  0  0  0  0  0
  149.0450  171.3700  170.5600 C   0  0  0  0  0  0  0  0  0  0  0  0
  148.9150  172.4240  169.8800 O   0  0  0  0  0  0  0  0  0  0  0  0
  149.8230  170.2260  170.0060 C   0  0  0  0  0  0  0  0  0  0  0  0
  149.4760  169.2770  170.4640 H   0  0  0  0  0  0  0  0  0  0  0  0
  149.6770  170.1770  168.9080 H   0  0  0  0  0  0  0  0  0  0  0  0
  150.9040  170.3570  170.2270 H   0  0  0  0  0  0  0  0  0  0  0  0
  146.2970  174.6240  178.0720 O   0  0  0  0  0  0  0  0  0  0  0  0
  146.0640  175.9810  178.3250 C   0  0  0  0  0  0  0  0  0  0  0  0
  145.2620  176.3440  179.2290 O   0  0  0  0  0  0  0  0  0  0  0  0
  146.7400  177.0080  177.4830 C   0  0  0  0  0  0  0  0  0  0  0  0
  146.5600  176.7970  176.4080 H   0  0  0  0  0  0  0  0  0  0  0  0
  147.8340  176.9930  177.6750 H   0  0  0  0  0  0  0  0  0  0  0  0
  146.3360  178.0120  177.7290 H   0  0  0  0  0  0  0  0  0  0  0  0
  1 20  1  6  0  0  0
  1 19  1  0  0  0  0
  1  2  1  0  0  0  0
  2 21  1  0  0  0  0
  2  3  1  0  0  0  0
  3 23  1  0  0  0  0
  3  4  1  0  0  0  0
  4 44  1  1  0  0  0
  4 18  1  0  0  0  0
  5 25  1  6  0  0  0
  5  4  1  0  0  0  0
  5  6  1  0  0  0  0
  6 26  1  0  0  0  0
  6  7  1  0  0  0  0
  7 28  1  6  0  0  0
  7 71  1  0  0  0  0
  7  8  1  0  0  0  0
  8 48  1  1  0  0  0
  8  9  1  0  0  0  0
  9 10  2  0  0  0  0
 10 29  1  0  0  0  0
 10 11  1  0  0  0  0
 11 13  1  0  0  0  0
 11 12  2  0  0  0  0
 14 36  1  0  0  0  0
 14 30  1  1  0  0  0
 14 13  1  0  0  0  0
 15 52  1  6  0  0  0
 15  9  1  0  0  0  0
 15 14  1  0  0  0  0
 16 31  1  0  0  0  0
 16 15  1  0  0  0  0
 17 18  1  0  0  0  0
 17 16  1  0  0  0  0
 18 35  1  1  0  0  0
 18  8  1  0  0  0  0
 19 60  1  0  0  0  0
 19  5  1  0  0  0  0
 22  2  1  0  0  0  0
 24  3  1  0  0  0  0
 27  6  1  0  0  0  0
 32 16  1  0  0  0  0
 33 17  1  0  0  0  0
 34 17  1  0  0  0  0
 36 40  2  0  0  0  0
 37 36  1  0  0  0  0
 37 38  2  0  0  0  0
 38 39  1  0  0  0  0
 40 39  1  0  0  0  0
 40 43  1  0  0  0  0
 41 37  1  0  0  0  0
 42 38  1  0  0  0  0
 44 45  1  0  0  0  0
 44 47  1  0  0  0  0
 46 44  1  0  0  0  0
 48 49  1  0  0  0  0
 48 51  1  0  0  0  0
 50 48  1  0  0  0  0
 52 54  1  0  0  0  0
 53 52  1  0  0  0  0
 55 52  1  0  0  0  0
 56 59  1  0  0  0  0
 56 58  1  0  0  0  0
 56 19  1  0  0  0  0
 57 56  1  0  0  0  0
 60 61  1  0  0  0  0
 62 60  1  0  0  0  0
 63 60  1  0  0  0  0
 64  1  1  0  0  0  0
 65 64  1  0  0  0  0
 66 65  2  0  0  0  0
 67 70  1  0  0  0  0
 67 68  1  0  0  0  0
 67 65  1  0  0  0  0
 69 67  1  0  0  0  0
 71 72  1  0  0  0  0
 72 73  2  0  0  0  0
 74 76  1  0  0  0  0
 74 77  1  0  0  0  0
 74 72  1  0  0  0  0
 75 74  1  0  0  0  0
M  END
>  <MODEL>
8

>  <REMARK>
 VINA RESULT:      -7.1      2.330      3.739
  Name = 3alpha-ACETOXYDIHYDRODEOXYGEDUNIN
  12 active torsions:
  status: ('A' for Active; 'I' for Inactive)
    1  A    between atoms: C_1  and  C_2
    2  A    between atoms: C_2  and  O_4
    3  A    between atoms: O_4  and  C_5
    4  A    between atoms: C_8  and  C_9
    5  A    between atoms: C_12  and  O_13
    6  A    between atoms: O_13  and  C_14
    7  A    between atoms: C_14  and  C_15
    8  A    between atoms: C_17  and  C_18
    9  A    between atoms: C_24  and  C_25
   10  A    between atoms: C_30  and  C_31
   11  A    between atoms: C_35  and  C_36
   12  A    between atoms: C_35  and  C_37
                            x       y       z     vdW  Elec       q    Type
                         _______ _______ _______ _____ _____    ______ ____

>  <TORSDO>
F 12

>  <vina_affinity>
-7.1

>  <vina_rmsd_lb>
2.330

>  <vina_rmsd_ub>
3.739

$$$$
3alpha-ACETOXYDIHYDRODEOXYGEDUNIN
 OpenBabel09062217423D

 77 81  0  0  1  0  0  0  0  0999 V2000
  146.4870  171.2210  181.0690 C   0  0  2  0  0  0  0  0  0  0  0  0
  145.0910  171.7840  180.8100 C   0  0  0  0  0  0  0  0  0  0  0  0
  144.7850  172.8470  181.8510 C   0  0  0  0  0  0  0  0  0  0  0  0
  145.8240  174.0330  181.9440 C   0  0  1  0  0  0  0  0  0  0  0  0
  147.3090  173.6600  181.4580 C   0  0  2  0  0  0  0  0  0  0  0  0
  148.0100  174.8490  180.7480 C   0  0  0  0  0  0  0  0  0  0  0  0
  147.7240  176.1990  181.4130 C   0  0  2  0  0  0  0  0  0  0  0  0
  146.2090  176.6380  181.2480 C   0  0  1  0  0  0  0  0  0  0  0  0
  146.0360  177.6200  180.0310 C   0  0  0  0  0  0  0  0  0  0  0  0
  146.6210  178.8500  180.0810 C   0  0  0  0  0  0  0  0  0  0  0  0
  146.3600  179.8680  179.0560 C   0  0  0  0  0  0  0  0  0  0  0  0
  147.0640  180.9100  178.9970 O   0  0  0  0  0  0  0  0  0  0  0  0
  145.3210  179.6750  178.1560 O   0  0  0  0  0  0  0  0  0  0  0  0
  144.4070  178.5990  178.3460 C   0  0  2  0  0  0  0  0  0  0  0  0
  145.1810  177.3030  178.7850 C   0  0  2  0  0  0  0  0  0  0  0  0
  144.1480  176.2100  179.1000 C   0  0  0  0  0  0  0  0  0  0  0  0
  144.7760  175.0070  179.7690 C   0  0  0  0  0  0  0  0  0  0  0  0
  145.2600  175.3380  181.1980 C   0  0  1  0  0  0  0  0  0  0  0  0
  147.5740  172.2670  180.7080 C   0  0  0  0  0  0  0  0  0  0  0  0
  146.5800  170.9760  182.1530 H   0  0  0  0  0  0  0  0  0  0  0  0
  144.9870  172.1760  179.7810 H   0  0  0  0  0  0  0  0  0  0  0  0
  144.3370  170.9740  180.9120 H   0  0  0  0  0  0  0  0  0  0  0  0
  143.7510  173.2270  181.7070 H   0  0  0  0  0  0  0  0  0  0  0  0
  144.7020  172.2880  182.8110 H   0  0  0  0  0  0  0  0  0  0  0  0
  147.8980  173.5650  182.3980 H   0  0  0  0  0  0  0  0  0  0  0  0
  147.7130  174.9310  179.6910 H   0  0  0  0  0  0  0  0  0  0  0  0
  149.1050  174.6660  180.7510 H   0  0  0  0  0  0  0  0  0  0  0  0
  147.9680  176.1060  182.4900 H   0  0  0  0  0  0  0  0  0  0  0  0
  147.2530  179.1480  180.9050 H   0  0  0  0  0  0  0  0  0  0  0  0
  143.7210  178.8950  179.1730 H   0  0  0  0  0  0  0  0  0  0  0  0
  143.3470  176.6120  179.7610 H   0  0  0  0  0  0  0  0  0  0  0  0
  143.6530  175.8710  178.1630 H   0  0  0  0  0  0  0  0  0  0  0  0
  143.9780  174.2410  179.7880 H   0  0  0  0  0  0  0  0  0  0  0  0
  145.5850  174.6050  179.1440 H   0  0  0  0  0  0  0  0  0  0  0  0
  144.3160  175.6030  181.7310 H   0  0  0  0  0  0  0  0  0  0  0  0
  143.5740  178.4290  177.1000 C   0  0  0  0  0  0  0  0  0  0  0  0
  142.3640  177.7740  176.9900 C   0  0  0  0  0  0  0  0  0  0  0  0
  141.9880  177.9100  175.6700 C   0  0  0  0  0  0  0  0  0  0  0  0
  142.8970  178.5990  175.0180 O   0  0  0  0  0  0  0  0  0  0  0  0
  143.8610  178.9270  175.8460 C   0  0  0  0  0  0  0  0  0  0  0  0
  141.8190  177.2630  177.7740 H   0  0  0  0  0  0  0  0  0  0  0  0
  141.0840  177.5160  175.2250 H   0  0  0  0  0  0  0  0  0  0  0  0
  144.7360  179.5010  175.5710 H   0  0  0  0  0  0  0  0  0  0  0  0
  145.8810  174.3190  183.4830 C   0  0  0  0  0  0  0  0  0  0  0  0
  146.6340  173.6720  183.9820 H   0  0  0  0  0  0  0  0  0  0  0  0
  146.1660  175.3770  183.6780 H   0  0  0  0  0  0  0  0  0  0  0  0
  144.9130  174.2090  183.9950 H   0  0  0  0  0  0  0  0  0  0  0  0
  145.7880  177.4770  182.5000 C   0  0  0  0  0  0  0  0  0  0  0  0
  146.5730  178.1460  182.8830 H   0  0  0  0  0  0  0  0  0  0  0  0
  144.9110  178.1240  182.2870 H   0  0  0  0  0  0  0  0  0  0  0  0
  145.5290  176.8060  183.3480 H   0  0  0  0  0  0  0  0  0  0  0  0
  146.1250  176.8490  177.6390 C   0  0  0  0  0  0  0  0  0  0  0  0
  145.7640  177.2120  176.6540 H   0  0  0  0  0  0  0  0  0  0  0  0
  147.1550  177.2330  177.7920 H   0  0  0  0  0  0  0  0  0  0  0  0
  146.2040  175.7470  177.5810 H   0  0  0  0  0  0  0  0  0  0  0  0
  148.9370  171.6910  181.1860 C   0  0  0  0  0  0  0  0  0  0  0  0
  149.4850  172.4240  181.8170 H   0  0  0  0  0  0  0  0  0  0  0  0
  148.7900  170.7690  181.7890 H   0  0  0  0  0  0  0  0  0  0  0  0
  149.5890  171.4360  180.3230 H   0  0  0  0  0  0  0  0  0  0  0  0
  147.6880  172.4000  179.1580 C   0  0  0  0  0  0  0  0  0  0  0  0
  146.7740  172.0270  178.6520 H   0  0  0  0  0  0  0  0  0  0  0  0
  147.8410  173.4400  178.8290 H   0  0  0  0  0  0  0  0  0  0  0  0
  148.5210  171.7830  178.7600 H   0  0  0  0  0  0  0  0  0  0  0  0
  146.6730  170.0160  180.3190 O   0  0  0  0  0  0  0  0  0  0  0  0
  146.0690  168.7960  180.6440 C   0  0  0  0  0  0  0  0  0  0  0  0
  146.2570  168.2610  181.7710 O   0  0  0  0  0  0  0  0  0  0  0  0
  145.2440  168.0920  179.6220 C   0  0  0  0  0  0  0  0  0  0  0  0
  144.8740  167.1300  180.0330 H   0  0  0  0  0  0  0  0  0  0  0  0
  144.3790  168.7280  179.3440 H   0  0  0  0  0  0  0  0  0  0  0  0
  145.8530  167.8860  178.7170 H   0  0  0  0  0  0  0  0  0  0  0  0
  148.6230  177.1690  180.8690 O   0  0  0  0  0  0  0  0  0  0  0  0
  149.8190  177.5640  181.4800 C   0  0  0  0  0  0  0  0  0  0  0  0
  150.8730  177.7160  180.8030 O   0  0  0  0  0  0  0  0  0  0  0  0
  149.8550  177.7640  182.9560 C   0  0  0  0  0  0  0  0  0  0  0  0
  150.4660  176.9680  183.4320 H   0  0  0  0  0  0  0  0  0  0  0  0
  148.8250  177.7230  183.3670 H   0  0  0  0  0  0  0  0  0  0  0  0
  150.3050  178.7530  183.1840 H   0  0  0  0  0  0  0  0  0  0  0  0
  1 20  1  1  0  0  0
  2 22  1  0  0  0  0
  2  1  1  0  0  0  0
  2  3  1  0  0  0  0
  3  4  1  0  0  0  0
  3 24  1  0  0  0  0
  4 44  1  1  0  0  0
  5  4  1  0  0  0  0
  5 25  1  1  0  0  0
  6 27  1  0  0  0  0
  6  7  1  0  0  0  0
  6  5  1  0  0  0  0
  7 28  1  1  0  0  0
  8  7  1  0  0  0  0
  8 48  1  1  0  0  0
  9 10  2  0  0  0  0
  9  8  1  0  0  0  0
 10 29  1  0  0  0  0
 11 10  1  0  0  0  0
 12 11  2  0  0  0  0
 13 14  1  0  0  0  0
 13 11  1  0  0  0  0
 14 15  1  0  0  0  0
 14 30  1  1  0  0  0
 15 52  1  6  0  0  0
 15 16  1  0  0  0  0
 15  9  1  0  0  0  0
 16 31  1  0  0  0  0
 16 17  1  0  0  0  0
 17 33  1  0  0  0  0
 17 18  1  0  0  0  0
 18  8  1  0  0  0  0
 18 35  1  1  0  0  0
 18  4  1  0  0  0  0
 19  1  1  0  0  0  0
 19 56  1  0  0  0  0
 19  5  1  0  0  0  0
 21  2  1  0  0  0  0
 23  3  1  0  0  0  0
 26  6  1  0  0  0  0
 32 16  1  0  0  0  0
 34 17  1  0  0  0  0
 36 14  1  0  0  0  0
 37 36  1  0  0  0  0
 37 41  1  0  0  0  0
 38 37  2  0  0  0  0
 39 38  1  0  0  0  0
 39 40  1  0  0  0  0
 40 36  2  0  0  0  0
 42 38  1  0  0  0  0
 43 40  1  0  0  0  0
 44 46  1  0  0  0  0
 44 45  1  0  0  0  0
 44 47  1  0  0  0  0
 48 49  1  0  0  0  0
 48 51  1  0  0  0  0
 50 48  1  0  0  0  0
 52 54  1  0  0  0  0
 53 52  1  0  0  0  0
 55 52  1  0  0  0  0
 56 58  1  0  0  0  0
 56 57  1  0  0  0  0
 59 56  1  0  0  0  0
 60 19  1  0  0  0  0
 61 60  1  0  0  0  0
 62 60  1  0  0  0  0
 63 60  1  0  0  0  0
 64 65  1  0  0  0  0
 64  1  1  0  0  0  0
 65 66  2  0  0  0  0
 67 68  1  0  0  0  0
 67 65  1  0  0  0  0
 69 67  1  0  0  0  0
 70 67  1  0  0  0  0
 71  7  1  0  0  0  0
 71 72  1  0  0  0  0
 72 74  1  0  0  0  0
 73 72  2  0  0  0  0
 74 77  1  0  0  0  0
 74 76  1  0  0  0  0
 74 75  1  0  0  0  0
M  END
>  <MODEL>
9

>  <REMARK>
 VINA RESULT:      -7.0      5.755     10.335
  Name = 3alpha-ACETOXYDIHYDRODEOXYGEDUNIN
  12 active torsions:
  status: ('A' for Active; 'I' for Inactive)
    1  A    between atoms: C_1  and  C_2
    2  A    between atoms: C_2  and  O_4
    3  A    between atoms: O_4  and  C_5
    4  A    between atoms: C_8  and  C_9
    5  A    between atoms: C_12  and  O_13
    6  A    between atoms: O_13  and  C_14
    7  A    between atoms: C_14  and  C_15
    8  A    between atoms: C_17  and  C_18
    9  A    between atoms: C_24  and  C_25
   10  A    between atoms: C_30  and  C_31
   11  A    between atoms: C_35  and  C_36
   12  A    between atoms: C_35  and  C_37
                            x       y       z     vdW  Elec       q    Type
                         _______ _______ _______ _____ _____    ______ ____

>  <TORSDO>
F 12

>  <vina_affinity>
-7.0

>  <vina_rmsd_lb>
5.755

>  <vina_rmsd_ub>
10.335

$$$$
KHIVORIN
 OpenBabel09062217423D

 84 89  0  0  1  0  0  0  0  0999 V2000
  148.1760  170.1290  178.4690 C   0  0  1  0  0  0  0  0  0  0  0  0
  146.7300  170.0860  178.9770 C   0  0  0  0  0  0  0  0  0  0  0  0
  145.7930  169.5110  177.8830 C   0  0  2  0  0  0  0  0  0  0  0  0
  146.0990  170.0610  176.4180 C   0  0  0  0  0  0  0  0  0  0  0  0
  146.9880  171.3550  176.5320 C   0  0  2  0  0  0  0  0  0  0  0  0
  147.0570  172.2730  175.2830 C   0  0  0  0  0  0  0  0  0  0  0  0
  148.2700  173.2280  175.2290 C   0  0  2  0  0  0  0  0  0  0  0  0
  148.8810  173.7390  176.6040 C   0  0  2  0  0  0  0  0  0  0  0  0
  148.7090  172.6790  177.7670 C   0  0  2  0  0  0  0  0  0  0  0  0
  149.6680  172.9990  178.9530 C   0  0  0  0  0  0  0  0  0  0  0  0
  149.7520  174.5280  179.2830 C   0  0  0  0  0  0  0  0  0  0  0  0
  148.5510  175.3870  178.7490 C   0  0  1  0  0  0  0  0  0  0  0  0
  148.8170  176.9270  178.8960 C   0  0  1  0  0  0  0  0  0  0  0  0
  147.6540  177.6450  178.4600 O   0  0  0  0  0  0  0  0  0  0  0  0
  146.8830  177.2280  177.3620 C   0  0  0  0  0  0  0  0  0  0  0  0
  145.8620  177.8850  177.0300 O   0  0  0  0  0  0  0  0  0  0  0  0
  147.2790  176.0100  176.5750 C   0  0  1  0  0  0  0  0  0  0  0  0
  148.6450  176.1300  176.3110 O   0  0  0  0  0  0  0  0  0  0  0  0
  148.2890  175.0830  177.2040 C   0  0  2  0  0  0  0  0  0  0  0  0
  148.3790  171.1850  177.3010 C   0  0  1  0  0  0  0  0  0  0  0  0
  148.3560  169.1040  178.0820 H   0  0  0  0  0  0  0  0  0  0  0  0
  146.6530  169.4400  179.8780 H   0  0  0  0  0  0  0  0  0  0  0  0
  146.4070  171.1040  179.2880 H   0  0  0  0  0  0  0  0  0  0  0  0
  145.9530  168.4080  177.8960 H   0  0  0  0  0  0  0  0  0  0  0  0
  146.3270  171.9670  177.1860 H   0  0  0  0  0  0  0  0  0  0  0  0
  147.0790  171.6490  174.3650 H   0  0  0  0  0  0  0  0  0  0  0  0
  146.1260  172.8850  175.2230 H   0  0  0  0  0  0  0  0  0  0  0  0
  149.0650  172.6280  174.7350 H   0  0  0  0  0  0  0  0  0  0  0  0
  147.7590  172.9330  178.2570 H   0  0  0  0  0  0  0  0  0  0  0  0
  149.2870  172.5350  179.8840 H   0  0  0  0  0  0  0  0  0  0  0  0
  150.6790  172.5850  178.7630 H   0  0  0  0  0  0  0  0  0  0  0  0
  149.8140  174.6380  180.3890 H   0  0  0  0  0  0  0  0  0  0  0  0
  150.7150  174.9350  178.9200 H   0  0  0  0  0  0  0  0  0  0  0  0
  149.6690  177.2070  178.2380 H   0  0  0  0  0  0  0  0  0  0  0  0
  146.6960  175.7210  175.6800 H   0  0  0  0  0  0  0  0  0  0  0  0
  149.2020  177.3740  180.2860 C   0  0  0  0  0  0  0  0  0  0  0  0
  150.4750  177.5860  180.7780 C   0  0  0  0  0  0  0  0  0  0  0  0
  150.3090  177.9500  182.0980 C   0  0  0  0  0  0  0  0  0  0  0  0
  149.0290  177.9600  182.3980 O   0  0  0  0  0  0  0  0  0  0  0  0
  148.3390  177.6150  181.3380 C   0  0  0  0  0  0  0  0  0  0  0  0
  151.4110  177.4810  180.2440 H   0  0  0  0  0  0  0  0  0  0  0  0
  151.1000  178.1900  182.7950 H   0  0  0  0  0  0  0  0  0  0  0  0
  147.2610  177.5310  181.3090 H   0  0  0  0  0  0  0  0  0  0  0  0
  144.7710  170.4020  175.6850 C   0  0  0  0  0  0  0  0  0  0  0  0
  144.5560  171.4920  175.7360 H   0  0  0  0  0  0  0  0  0  0  0  0
  144.8040  170.1090  174.6150 H   0  0  0  0  0  0  0  0  0  0  0  0
  143.9170  169.8490  176.1330 H   0  0  0  0  0  0  0  0  0  0  0  0
  146.7920  168.9650  175.5720 C   0  0  0  0  0  0  0  0  0  0  0  0
  146.4070  168.9580  174.5320 H   0  0  0  0  0  0  0  0  0  0  0  0
  147.8890  169.0840  175.5320 H   0  0  0  0  0  0  0  0  0  0  0  0
  146.5980  167.9630  176.0110 H   0  0  0  0  0  0  0  0  0  0  0  0
  150.4030  174.0260  176.2830 C   0  0  0  0  0  0  0  0  0  0  0  0
  150.7140  175.0630  176.5080 H   0  0  0  0  0  0  0  0  0  0  0  0
  150.6260  173.9330  175.1970 H   0  0  0  0  0  0  0  0  0  0  0  0
  151.1060  173.3680  176.8200 H   0  0  0  0  0  0  0  0  0  0  0  0
  147.2750  175.0270  179.5890 C   0  0  0  0  0  0  0  0  0  0  0  0
  146.3400  175.2350  179.0280 H   0  0  0  0  0  0  0  0  0  0  0  0
  147.2420  173.9620  179.9020 H   0  0  0  0  0  0  0  0  0  0  0  0
  147.2180  175.5960  180.5360 H   0  0  0  0  0  0  0  0  0  0  0  0
  149.5040  170.6140  176.3720 C   0  0  0  0  0  0  0  0  0  0  0  0
  149.1440  169.8620  175.6380 H   0  0  0  0  0  0  0  0  0  0  0  0
  149.9850  171.3970  175.7530 H   0  0  0  0  0  0  0  0  0  0  0  0
  150.2750  170.0680  176.9330 H   0  0  0  0  0  0  0  0  0  0  0  0
  149.1080  170.3040  179.5320 O   0  0  0  0  0  0  0  0  0  0  0  0
  149.8970  169.2810  180.0710 C   0  0  0  0  0  0  0  0  0  0  0  0
  150.0740  169.1850  181.3160 O   0  0  0  0  0  0  0  0  0  0  0  0
  150.4800  168.2540  179.1610 C   0  0  0  0  0  0  0  0  0  0  0  0
  151.3950  168.6480  178.6680 H   0  0  0  0  0  0  0  0  0  0  0  0
  150.7410  167.3480  179.7480 H   0  0  0  0  0  0  0  0  0  0  0  0
  149.7390  167.9830  178.3810 H   0  0  0  0  0  0  0  0  0  0  0  0
  144.4480  169.7910  178.2930 O   0  0  0  0  0  0  0  0  0  0  0  0
  144.1000  170.7610  179.2410 C   0  0  0  0  0  0  0  0  0  0  0  0
  143.8020  170.4380  180.4220 O   0  0  0  0  0  0  0  0  0  0  0  0
  144.0950  172.1990  178.8540 C   0  0  0  0  0  0  0  0  0  0  0  0
  143.7710  172.8240  179.7120 H   0  0  0  0  0  0  0  0  0  0  0  0
  143.3980  172.3590  178.0050 H   0  0  0  0  0  0  0  0  0  0  0  0
  145.1180  172.5090  178.5530 H   0  0  0  0  0  0  0  0  0  0  0  0
  148.0020  174.3160  174.3420 O   0  0  0  0  0  0  0  0  0  0  0  0
  148.4710  174.3920  173.0250 C   0  0  0  0  0  0  0  0  0  0  0  0
  148.1490  175.3550  172.2770 O   0  0  0  0  0  0  0  0  0  0  0  0
  149.3180  173.2920  172.4850 C   0  0  0  0  0  0  0  0  0  0  0  0
  148.7690  172.7540  171.6840 H   0  0  0  0  0  0  0  0  0  0  0  0
  149.5700  172.5770  173.2950 H   0  0  0  0  0  0  0  0  0  0  0  0
  150.2570  173.7090  172.0690 H   0  0  0  0  0  0  0  0  0  0  0  0
  1 21  1  6  0  0  0
  1  2  1  0  0  0  0
  1 64  1  0  0  0  0
  2 23  1  0  0  0  0
  2 22  1  0  0  0  0
  3 24  1  6  0  0  0
  3 71  1  0  0  0  0
  3  2  1  0  0  0  0
  4  5  1  0  0  0  0
  4  3  1  0  0  0  0
  5 25  1  1  0  0  0
  5 20  1  0  0  0  0
  6  5  1  0  0  0  0
  7 28  1  6  0  0  0
  7  6  1  0  0  0  0
  7  8  1  0  0  0  0
  8 52  1  6  0  0  0
  8 19  1  0  0  0  0
  8  9  1  0  0  0  0
  9 29  1  1  0  0  0
  9 10  1  0  0  0  0
 10 11  1  0  0  0  0
 10 30  1  0  0  0  0
 11 32  1  0  0  0  0
 12 13  1  0  0  0  0
 12 11  1  0  0  0  0
 12 56  1  1  0  0  0
 13 34  1  6  0  0  0
 13 36  1  0  0  0  0
 14 13  1  0  0  0  0
 15 14  1  0  0  0  0
 16 15  2  0  0  0  0
 17 35  1  6  0  0  0
 17 19  1  0  0  0  0
 17 15  1  0  0  0  0
 18 17  1  0  0  0  0
 19 18  1  6  0  0  0
 19 12  1  0  0  0  0
 20 60  1  6  0  0  0
 20  9  1  0  0  0  0
 20  1  1  0  0  0  0
 26  6  1  0  0  0  0
 27  6  1  0  0  0  0
 31 10  1  0  0  0  0
 33 11  1  0  0  0  0
 36 37  1  0  0  0  0
 36 40  2  0  0  0  0
 37 38  2  0  0  0  0
 38 39  1  0  0  0  0
 38 42  1  0  0  0  0
 40 39  1  0  0  0  0
 41 37  1  0  0  0  0
 43 40  1  0  0  0  0
 44 45  1  0  0  0  0
 44 47  1  0  0  0  0
 44  4  1  0  0  0  0
 46 44  1  0  0  0  0
 48 51  1  0  0  0  0
 48  4  1  0  0  0  0
 49 48  1  0  0  0  0
 50 48  1  0  0  0  0
 52 53  1  0  0  0  0
 52 55  1  0  0  0  0
 54 52  1  0  0  0  0
 56 58  1  0  0  0  0
 56 59  1  0  0  0  0
 57 56  1  0  0  0  0
 60 63  1  0  0  0  0
 61 60  1  0  0  0  0
 62 60  1  0  0  0  0
 64 65  1  0  0  0  0
 65 66  2  0  0  0  0
 67 69  1  0  0  0  0
 67 65  1  0  0  0  0
 68 67  1  0  0  0  0
 70 67  1  0  0  0  0
 71 72  1  0  0  0  0
 72 73  2  0  0  0  0
 74 72  1  0  0  0  0
 74 75  1  0  0  0  0
 76 74  1  0  0  0  0
 77 74  1  0  0  0  0
 78  7  1  0  0  0  0
 79 78  1  0  0  0  0
 80 79  2  0  0  0  0
 81 79  1  0  0  0  0
 81 83  1  0  0  0  0
 82 81  1  0  0  0  0
 84 81  1  0  0  0  0
M  END
>  <MODEL>
1

>  <REMARK>
 VINA RESULT:      -8.1      0.000      0.000
  Name = KHIVORIN
  15 active torsions:
  status: ('A' for Active; 'I' for Inactive)
    1  A    between atoms: C_1  and  C_2
    2  A    between atoms: C_2  and  O_4
    3  A    between atoms: O_4  and  C_5
    4  A    between atoms: C_7  and  O_8
    5  A    between atoms: O_8  and  C_9
    6  A    between atoms: C_9  and  C_10
    7  A    between atoms: C_12  and  C_13
    8  A    between atoms: C_12  and  C_14
    9  A    between atoms: C_17  and  O_18
   10  A    between atoms: O_18  and  C_19
   11  A    between atoms: C_19  and  C_20
   12  A    between atoms: C_22  and  C_23
   13  A    between atoms: C_27  and  C_28
   14  A    between atoms: C_29  and  C_30
   15  A    between atoms: C_41  and  C_42
                            x       y       z     vdW  Elec       q    Type
                         _______ _______ _______ _____ _____    ______ ____

>  <TORSDO>
F 15

>  <vina_affinity>
-8.1

>  <vina_rmsd_lb>
0.000

>  <vina_rmsd_ub>
0.000

$$$$
KHIVORIN
 OpenBabel09062217423D

 84 89  0  0  1  0  0  0  0  0999 V2000
  147.5880  169.8560  177.9720 C   0  0  1  0  0  0  0  0  0  0  0  0
  146.3620  169.4590  177.1410 C   0  0  0  0  0  0  0  0  0  0  0  0
  146.6490  169.6600  175.6300 C   0  0  2  0  0  0  0  0  0  0  0  0
  147.4250  171.0120  175.2960 C   0  0  0  0  0  0  0  0  0  0  0  0
  147.3200  171.9820  176.5310 C   0  0  2  0  0  0  0  0  0  0  0  0
  147.6370  173.4800  176.2790 C   0  0  0  0  0  0  0  0  0  0  0  0
  148.0060  174.3000  177.5350 C   0  0  2  0  0  0  0  0  0  0  0  0
  147.3750  173.8630  178.9250 C   0  0  2  0  0  0  0  0  0  0  0  0
  147.1070  172.3040  179.0000 C   0  0  2  0  0  0  0  0  0  0  0  0
  146.9060  171.8470  180.4750 C   0  0  0  0  0  0  0  0  0  0  0  0
  146.0320  172.8400  181.3150 C   0  0  0  0  0  0  0  0  0  0  0  0
  145.1290  173.8040  180.4680 C   0  0  1  0  0  0  0  0  0  0  0  0
  144.4750  174.9250  181.3500 C   0  0  1  0  0  0  0  0  0  0  0  0
  143.6070  175.7200  180.5280 O   0  0  0  0  0  0  0  0  0  0  0  0
  143.9300  176.0530  179.2020 C   0  0  0  0  0  0  0  0  0  0  0  0
  143.1270  176.7400  178.5180 O   0  0  0  0  0  0  0  0  0  0  0  0
  145.2330  175.6040  178.6010 C   0  0  1  0  0  0  0  0  0  0  0  0
  146.2290  175.9070  179.5320 O   0  0  0  0  0  0  0  0  0  0  0  0
  145.9890  174.5210  179.3290 C   0  0  2  0  0  0  0  0  0  0  0  0
  147.8800  171.4160  177.9170 C   0  0  1  0  0  0  0  0  0  0  0  0
  148.4250  169.3020  177.4980 H   0  0  0  0  0  0  0  0  0  0  0  0
  146.1070  168.3910  177.3090 H   0  0  0  0  0  0  0  0  0  0  0  0
  145.4770  170.0500  177.4650 H   0  0  0  0  0  0  0  0  0  0  0  0
  147.2810  168.7950  175.3230 H   0  0  0  0  0  0  0  0  0  0  0  0
  146.2110  172.0320  176.6240 H   0  0  0  0  0  0  0  0  0  0  0  0
  148.4800  173.5640  175.5610 H   0  0  0  0  0  0  0  0  0  0  0  0
  146.7600  173.9650  175.7890 H   0  0  0  0  0  0  0  0  0  0  0  0
  149.1060  174.1640  177.6320 H   0  0  0  0  0  0  0  0  0  0  0  0
  146.0760  172.1660  178.6470 H   0  0  0  0  0  0  0  0  0  0  0  0
  146.3460  170.8920  180.5030 H   0  0  0  0  0  0  0  0  0  0  0  0
  147.8850  171.6750  180.9700 H   0  0  0  0  0  0  0  0  0  0  0  0
  145.3860  172.2390  181.9940 H   0  0  0  0  0  0  0  0  0  0  0  0
  146.6800  173.4160  182.0030 H   0  0  0  0  0  0  0  0  0  0  0  0
  145.2790  175.5820  181.7490 H   0  0  0  0  0  0  0  0  0  0  0  0
  145.5010  175.9160  177.5740 H   0  0  0  0  0  0  0  0  0  0  0  0
  143.7150  174.4220  182.5550 C   0  0  0  0  0  0  0  0  0  0  0  0
  142.4550  173.8550  182.5760 C   0  0  0  0  0  0  0  0  0  0  0  0
  142.1890  173.5920  183.9050 C   0  0  0  0  0  0  0  0  0  0  0  0
  143.2060  173.9710  184.6460 O   0  0  0  0  0  0  0  0  0  0  0  0
  144.1350  174.4770  183.8700 C   0  0  0  0  0  0  0  0  0  0  0  0
  141.8070  173.6630  181.7310 H   0  0  0  0  0  0  0  0  0  0  0  0
  141.2830  173.1480  184.2930 H   0  0  0  0  0  0  0  0  0  0  0  0
  145.0770  174.8750  184.2220 H   0  0  0  0  0  0  0  0  0  0  0  0
  146.8020  171.6920  174.0440 C   0  0  0  0  0  0  0  0  0  0  0  0
  145.9270  171.1160  173.6700 H   0  0  0  0  0  0  0  0  0  0  0  0
  146.4620  172.7260  174.2630 H   0  0  0  0  0  0  0  0  0  0  0  0
  147.5490  171.7770  173.2250 H   0  0  0  0  0  0  0  0  0  0  0  0
  148.8980  170.7050  174.9340 C   0  0  0  0  0  0  0  0  0  0  0  0
  148.9950  170.3970  173.8730 H   0  0  0  0  0  0  0  0  0  0  0  0
  149.5690  171.5650  175.1050 H   0  0  0  0  0  0  0  0  0  0  0  0
  149.2810  169.8740  175.5640 H   0  0  0  0  0  0  0  0  0  0  0  0
  148.4250  174.3360  180.0080 C   0  0  0  0  0  0  0  0  0  0  0  0
  148.1490  174.0600  181.0430 H   0  0  0  0  0  0  0  0  0  0  0  0
  148.4990  175.4460  180.0620 H   0  0  0  0  0  0  0  0  0  0  0  0
  149.4440  173.9480  179.8450 H   0  0  0  0  0  0  0  0  0  0  0  0
  143.9780  172.9580  179.8160 C   0  0  0  0  0  0  0  0  0  0  0  0
  143.1140  173.5910  179.5260 H   0  0  0  0  0  0  0  0  0  0  0  0
  144.3000  172.4040  178.9100 H   0  0  0  0  0  0  0  0  0  0  0  0
  143.5920  172.1760  180.4970 H   0  0  0  0  0  0  0  0  0  0  0  0
  149.4330  171.5840  178.0420 C   0  0  0  0  0  0  0  0  0  0  0  0
  149.9940  170.6260  178.0220 H   0  0  0  0  0  0  0  0  0  0  0  0
  149.8660  172.1750  177.2100 H   0  0  0  0  0  0  0  0  0  0  0  0
  149.7310  172.0310  179.0000 H   0  0  0  0  0  0  0  0  0  0  0  0
  147.5100  169.3610  179.3050 O   0  0  0  0  0  0  0  0  0  0  0  0
  148.3930  168.4260  179.8560 C   0  0  0  0  0  0  0  0  0  0  0  0
  148.1300  167.8480  180.9470 O   0  0  0  0  0  0  0  0  0  0  0  0
  149.6290  168.0620  179.1080 C   0  0  0  0  0  0  0  0  0  0  0  0
  149.3970  167.3180  178.3150 H   0  0  0  0  0  0  0  0  0  0  0  0
  150.0600  168.9720  178.6420 H   0  0  0  0  0  0  0  0  0  0  0  0
  150.3720  167.6220  179.8060 H   0  0  0  0  0  0  0  0  0  0  0  0
  145.3900  169.5800  174.9500 O   0  0  0  0  0  0  0  0  0  0  0  0
  144.1780  169.2530  175.5720 C   0  0  0  0  0  0  0  0  0  0  0  0
  143.6890  168.0960  175.4750 O   0  0  0  0  0  0  0  0  0  0  0  0
  143.4620  170.2840  176.3740 C   0  0  0  0  0  0  0  0  0  0  0  0
  143.7140  171.3000  176.0020 H   0  0  0  0  0  0  0  0  0  0  0  0
  143.7570  170.2050  177.4410 H   0  0  0  0  0  0  0  0  0  0  0  0
  142.3660  170.1330  176.2840 H   0  0  0  0  0  0  0  0  0  0  0  0
  147.8120  175.6940  177.2890 O   0  0  0  0  0  0  0  0  0  0  0  0
  148.8490  176.6260  177.1720 C   0  0  0  0  0  0  0  0  0  0  0  0
  149.8190  176.4220  176.3910 O   0  0  0  0  0  0  0  0  0  0  0  0
  148.8340  177.8490  178.0230 C   0  0  0  0  0  0  0  0  0  0  0  0
  149.8660  178.2410  178.1360 H   0  0  0  0  0  0  0  0  0  0  0  0
  148.4260  177.6060  179.0260 H   0  0  0  0  0  0  0  0  0  0  0  0
  148.1970  178.6260  177.5540 H   0  0  0  0  0  0  0  0  0  0  0  0
  1 21  1  6  0  0  0
  1 64  1  0  0  0  0
  2 22  1  0  0  0  0
  2 23  1  0  0  0  0
  2  1  1  0  0  0  0
  3 24  1  6  0  0  0
  3  2  1  0  0  0  0
  4  3  1  0  0  0  0
  4  5  1  0  0  0  0
  5 25  1  1  0  0  0
  5 20  1  0  0  0  0
  6  5  1  0  0  0  0
  6  7  1  0  0  0  0
  7 28  1  1  0  0  0
  7  8  1  0  0  0  0
  8  9  1  0  0  0  0
  8 19  1  0  0  0  0
  8 52  1  1  0  0  0
  9 29  1  6  0  0  0
  9 10  1  0  0  0  0
 10 30  1  0  0  0  0
 10 31  1  0  0  0  0
 10 11  1  0  0  0  0
 11 32  1  0  0  0  0
 11 33  1  0  0  0  0
 12 56  1  6  0  0  0
 12 11  1  0  0  0  0
 12 13  1  0  0  0  0
 13 34  1  1  0  0  0
 13 36  1  0  0  0  0
 14 13  1  0  0  0  0
 15 14  1  0  0  0  0
 16 15  2  0  0  0  0
 17 35  1  6  0  0  0
 17 15  1  0  0  0  0
 17 19  1  0  0  0  0
 17 18  1  0  0  0  0
 19 18  1  1  0  0  0
 19 12  1  0  0  0  0
 20  1  1  0  0  0  0
 20 60  1  1  0  0  0
 20  9  1  0  0  0  0
 26  6  1  0  0  0  0
 27  6  1  0  0  0  0
 36 37  1  0  0  0  0
 36 40  2  0  0  0  0
 37 38  2  0  0  0  0
 38 42  1  0  0  0  0
 38 39  1  0  0  0  0
 40 43  1  0  0  0  0
 40 39  1  0  0  0  0
 41 37  1  0  0  0  0
 44 46  1  0  0  0  0
 44  4  1  0  0  0  0
 45 44  1  0  0  0  0
 47 44  1  0  0  0  0
 48 50  1  0  0  0  0
 48  4  1  0  0  0  0
 48 51  1  0  0  0  0
 49 48  1  0  0  0  0
 52 54  1  0  0  0  0
 52 53  1  0  0  0  0
 55 52  1  0  0  0  0
 56 59  1  0  0  0  0
 57 56  1  0  0  0  0
 58 56  1  0  0  0  0
 60 63  1  0  0  0  0
 61 60  1  0  0  0  0
 62 60  1  0  0  0  0
 64 65  1  0  0  0  0
 65 66  2  0  0  0  0
 67 70  1  0  0  0  0
 67 65  1  0  0  0  0
 68 67  1  0  0  0  0
 69 67  1  0  0  0  0
 71 72  1  0  0  0  0
 71  3  1  0  0  0  0
 72 74  1  0  0  0  0
 73 72  2  0  0  0  0
 74 76  1  0  0  0  0
 75 74  1  0  0  0  0
 77 74  1  0  0  0  0
 78  7  1  0  0  0  0
 79 78  1  0  0  0  0
 79 81  1  0  0  0  0
 80 79  2  0  0  0  0
 81 82  1  0  0  0  0
 81 83  1  0  0  0  0
 84 81  1  0  0  0  0
M  END
>  <MODEL>
2

>  <REMARK>
 VINA RESULT:      -7.1      2.629      4.199
  Name = KHIVORIN
  15 active torsions:
  status: ('A' for Active; 'I' for Inactive)
    1  A    between atoms: C_1  and  C_2
    2  A    between atoms: C_2  and  O_4
    3  A    between atoms: O_4  and  C_5
    4  A    between atoms: C_7  and  O_8
    5  A    between atoms: O_8  and  C_9
    6  A    between atoms: C_9  and  C_10
    7  A    between atoms: C_12  and  C_13
    8  A    between atoms: C_12  and  C_14
    9  A    between atoms: C_17  and  O_18
   10  A    between atoms: O_18  and  C_19
   11  A    between atoms: C_19  and  C_20
   12  A    between atoms: C_22  and  C_23
   13  A    between atoms: C_27  and  C_28
   14  A    between atoms: C_29  and  C_30
   15  A    between atoms: C_41  and  C_42
                            x       y       z     vdW  Elec       q    Type
                         _______ _______ _______ _____ _____    ______ ____

>  <TORSDO>
F 15

>  <vina_affinity>
-7.1

>  <vina_rmsd_lb>
2.629

>  <vina_rmsd_ub>
4.199

$$$$
KHIVORIN
 OpenBabel09062217423D

 84 89  0  0  1  0  0  0  0  0999 V2000
  145.8950  171.2640  177.0360 C   0  0  1  0  0  0  0  0  0  0  0  0
  146.2380  171.5180  175.5630 C   0  0  0  0  0  0  0  0  0  0  0  0
  147.5160  170.7330  175.1670 C   0  0  2  0  0  0  0  0  0  0  0  0
  148.6690  170.7820  176.2660 C   0  0  0  0  0  0  0  0  0  0  0  0
  148.3710  171.9570  177.2710 C   0  0  2  0  0  0  0  0  0  0  0  0
  149.5490  172.4440  178.1540 C   0  0  0  0  0  0  0  0  0  0  0  0
  149.1450  173.2150  179.4310 C   0  0  2  0  0  0  0  0  0  0  0  0
  147.7970  174.0540  179.4020 C   0  0  2  0  0  0  0  0  0  0  0  0
  146.7140  173.4180  178.4380 C   0  0  2  0  0  0  0  0  0  0  0  0
  145.2970  173.9850  178.7470 C   0  0  0  0  0  0  0  0  0  0  0  0
  145.2970  175.5270  179.0270 C   0  0  0  0  0  0  0  0  0  0  0  0
  146.5520  176.2970  178.4830 C   0  0  1  0  0  0  0  0  0  0  0  0
  146.6080  177.7760  179.0070 C   0  0  1  0  0  0  0  0  0  0  0  0
  147.7340  178.4390  178.4120 O   0  0  0  0  0  0  0  0  0  0  0  0
  148.9590  177.7870  178.1960 C   0  0  0  0  0  0  0  0  0  0  0  0
  149.9100  178.4100  177.6560 O   0  0  0  0  0  0  0  0  0  0  0  0
  149.1430  176.3550  178.6160 C   0  0  1  0  0  0  0  0  0  0  0  0
  148.6570  176.2560  179.9220 O   0  0  0  0  0  0  0  0  0  0  0  0
  147.8980  175.5680  178.9380 C   0  0  2  0  0  0  0  0  0  0  0  0
  146.9640  171.8920  178.0270 C   0  0  1  0  0  0  0  0  0  0  0  0
  145.9050  170.1570  177.1280 H   0  0  0  0  0  0  0  0  0  0  0  0
  145.4060  171.1850  174.9060 H   0  0  0  0  0  0  0  0  0  0  0  0
  146.3650  172.6080  175.3860 H   0  0  0  0  0  0  0  0  0  0  0  0
  147.1920  169.6760  175.0290 H   0  0  0  0  0  0  0  0  0  0  0  0
  148.3120  172.8000  176.5450 H   0  0  0  0  0  0  0  0  0  0  0  0
  150.1620  171.5720  178.4670 H   0  0  0  0  0  0  0  0  0  0  0  0
  150.2200  173.0960  177.5480 H   0  0  0  0  0  0  0  0  0  0  0  0
  149.0040  172.4180  180.1950 H   0  0  0  0  0  0  0  0  0  0  0  0
  146.8700  173.8990  177.4630 H   0  0  0  0  0  0  0  0  0  0  0  0
  144.6390  173.8640  177.8650 H   0  0  0  0  0  0  0  0  0  0  0  0
  144.8290  173.4360  179.5910 H   0  0  0  0  0  0  0  0  0  0  0  0
  144.3780  175.9590  178.5700 H   0  0  0  0  0  0  0  0  0  0  0  0
  145.1670  175.7090  180.1110 H   0  0  0  0  0  0  0  0  0  0  0  0
  146.7530  177.7600  180.1100 H   0  0  0  0  0  0  0  0  0  0  0  0
  150.1280  175.8680  178.4890 H   0  0  0  0  0  0  0  0  0  0  0  0
  145.3540  178.5820  178.7650 C   0  0  0  0  0  0  0  0  0  0  0  0
  144.3410  178.8490  179.6640 C   0  0  0  0  0  0  0  0  0  0  0  0
  143.4090  179.5900  178.9660 C   0  0  0  0  0  0  0  0  0  0  0  0
  143.8170  179.7650  177.7290 O   0  0  0  0  0  0  0  0  0  0  0  0
  144.9750  179.1700  177.5730 C   0  0  0  0  0  0  0  0  0  0  0  0
  144.2820  178.5370  180.6990 H   0  0  0  0  0  0  0  0  0  0  0  0
  142.4780  179.9720  179.3620 H   0  0  0  0  0  0  0  0  0  0  0  0
  145.5320  179.1480  176.6460 H   0  0  0  0  0  0  0  0  0  0  0  0
  150.0480  171.0140  175.5860 C   0  0  0  0  0  0  0  0  0  0  0  0
  150.0590  170.6020  174.5540 H   0  0  0  0  0  0  0  0  0  0  0  0
  150.3020  172.0940  175.5260 H   0  0  0  0  0  0  0  0  0  0  0  0
  150.8640  170.5350  176.1700 H   0  0  0  0  0  0  0  0  0  0  0  0
  148.7690  169.4190  176.9940 C   0  0  0  0  0  0  0  0  0  0  0  0
  149.0610  168.6110  176.2940 H   0  0  0  0  0  0  0  0  0  0  0  0
  149.4930  169.4310  177.8280 H   0  0  0  0  0  0  0  0  0  0  0  0
  147.7850  169.1480  177.4330 H   0  0  0  0  0  0  0  0  0  0  0  0
  147.3100  174.0810  180.9060 C   0  0  0  0  0  0  0  0  0  0  0  0
  148.1370  174.1290  181.6390 H   0  0  0  0  0  0  0  0  0  0  0  0
  146.7820  173.1430  181.1920 H   0  0  0  0  0  0  0  0  0  0  0  0
  146.6360  174.9200  181.1450 H   0  0  0  0  0  0  0  0  0  0  0  0
  146.4670  176.3340  176.9160 C   0  0  0  0  0  0  0  0  0  0  0  0
  146.3320  177.3680  176.5350 H   0  0  0  0  0  0  0  0  0  0  0  0
  147.3650  175.9140  176.4180 H   0  0  0  0  0  0  0  0  0  0  0  0
  145.6250  175.7330  176.5240 H   0  0  0  0  0  0  0  0  0  0  0  0
  147.0100  170.9600  179.2850 C   0  0  0  0  0  0  0  0  0  0  0  0
  146.0310  170.8460  179.7980 H   0  0  0  0  0  0  0  0  0  0  0  0
  147.3150  169.9240  179.0380 H   0  0  0  0  0  0  0  0  0  0  0  0
  147.6630  171.3530  180.0760 H   0  0  0  0  0  0  0  0  0  0  0  0
  144.5620  171.6590  177.3470 O   0  0  0  0  0  0  0  0  0  0  0  0
  143.4580  170.8000  177.3400 C   0  0  0  0  0  0  0  0  0  0  0  0
  142.4270  171.0600  178.0190 O   0  0  0  0  0  0  0  0  0  0  0  0
  143.4780  169.5940  176.4640 C   0  0  0  0  0  0  0  0  0  0  0  0
  144.4710  169.4890  175.9730 H   0  0  0  0  0  0  0  0  0  0  0  0
  143.2740  168.6900  177.0760 H   0  0  0  0  0  0  0  0  0  0  0  0
  142.6980  169.6880  175.6810 H   0  0  0  0  0  0  0  0  0  0  0  0
  147.9530  171.2540  173.9050 O   0  0  0  0  0  0  0  0  0  0  0  0
  147.2530  172.2160  173.1650 C   0  0  0  0  0  0  0  0  0  0  0  0
  146.3790  171.8780  172.3230 O   0  0  0  0  0  0  0  0  0  0  0  0
  147.5350  173.6620  173.3860 C   0  0  0  0  0  0  0  0  0  0  0  0
  147.9170  173.8220  174.4160 H   0  0  0  0  0  0  0  0  0  0  0  0
  146.6070  174.2530  173.2460 H   0  0  0  0  0  0  0  0  0  0  0  0
  148.3040  174.0070  172.6630 H   0  0  0  0  0  0  0  0  0  0  0  0
  150.2410  174.0040  179.8980 O   0  0  0  0  0  0  0  0  0  0  0  0
  151.0790  173.6400  180.9580 C   0  0  0  0  0  0  0  0  0  0  0  0
  152.3340  173.6810  180.8360 O   0  0  0  0  0  0  0  0  0  0  0  0
  150.4790  173.1440  182.2290 C   0  0  0  0  0  0  0  0  0  0  0  0
  149.3850  173.0050  182.0970 H   0  0  0  0  0  0  0  0  0  0  0  0
  150.6560  173.8780  183.0410 H   0  0  0  0  0  0  0  0  0  0  0  0
  150.9400  172.1760  182.5100 H   0  0  0  0  0  0  0  0  0  0  0  0
  1 21  1  1  0  0  0
  1 64  1  0  0  0  0
  1 20  1  0  0  0  0
  2  1  1  0  0  0  0
  3 24  1  6  0  0  0
  3  2  1  0  0  0  0
  3  4  1  0  0  0  0
  4 48  1  0  0  0  0
  4  5  1  0  0  0  0
  5 25  1  6  0  0  0
  5 20  1  0  0  0  0
  5  6  1  0  0  0  0
  6 26  1  0  0  0  0
  6  7  1  0  0  0  0
  7 78  1  0  0  0  0
  7 28  1  1  0  0  0
  8  7  1  0  0  0  0
  8 52  1  1  0  0  0
  9 29  1  6  0  0  0
  9 10  1  0  0  0  0
  9  8  1  0  0  0  0
 10 11  1  0  0  0  0
 10 31  1  0  0  0  0
 11 33  1  0  0  0  0
 12 56  1  6  0  0  0
 12 19  1  0  0  0  0
 12 13  1  0  0  0  0
 12 11  1  0  0  0  0
 13 34  1  1  0  0  0
 14 13  1  0  0  0  0
 15 14  1  0  0  0  0
 15 17  1  0  0  0  0
 16 15  2  0  0  0  0
 17 35  1  6  0  0  0
 17 19  1  0  0  0  0
 17 18  1  0  0  0  0
 19  8  1  0  0  0  0
 19 18  1  1  0  0  0
 20  9  1  0  0  0  0
 20 60  1  1  0  0  0
 22  2  1  0  0  0  0
 23  2  1  0  0  0  0
 27  6  1  0  0  0  0
 30 10  1  0  0  0  0
 32 11  1  0  0  0  0
 36 13  1  0  0  0  0
 36 37  1  0  0  0  0
 37 41  1  0  0  0  0
 38 42  1  0  0  0  0
 38 37  2  0  0  0  0
 39 38  1  0  0  0  0
 40 39  1  0  0  0  0
 40 36  2  0  0  0  0
 43 40  1  0  0  0  0
 44 47  1  0  0  0  0
 44  4  1  0  0  0  0
 45 44  1  0  0  0  0
 46 44  1  0  0  0  0
 48 51  1  0  0  0  0
 48 50  1  0  0  0  0
 49 48  1  0  0  0  0
 52 55  1  0  0  0  0
 52 54  1  0  0  0  0
 52 53  1  0  0  0  0
 57 56  1  0  0  0  0
 58 56  1  0  0  0  0
 59 56  1  0  0  0  0
 60 61  1  0  0  0  0
 60 63  1  0  0  0  0
 62 60  1  0  0  0  0
 65 64  1  0  0  0  0
 65 66  2  0  0  0  0
 67 69  1  0  0  0  0
 67 65  1  0  0  0  0
 68 67  1  0  0  0  0
 70 67  1  0  0  0  0
 71  3  1  0  0  0  0
 72 74  1  0  0  0  0
 72 71  1  0  0  0  0
 73 72  2  0  0  0  0
 74 75  1  0  0  0  0
 76 74  1  0  0  0  0
 77 74  1  0  0  0  0
 78 79  1  0  0  0  0
 79 81  1  0  0  0  0
 80 79  2  0  0  0  0
 81 84  1  0  0  0  0
 81 83  1  0  0  0  0
 82 81  1  0  0  0  0
M  END
>  <MODEL>
3

>  <REMARK>
 VINA RESULT:      -7.0      2.279      5.319
  Name = KHIVORIN
  15 active torsions:
  status: ('A' for Active; 'I' for Inactive)
    1  A    between atoms: C_1  and  C_2
    2  A    between atoms: C_2  and  O_4
    3  A    between atoms: O_4  and  C_5
    4  A    between atoms: C_7  and  O_8
    5  A    between atoms: O_8  and  C_9
    6  A    between atoms: C_9  and  C_10
    7  A    between atoms: C_12  and  C_13
    8  A    between atoms: C_12  and  C_14
    9  A    between atoms: C_17  and  O_18
   10  A    between atoms: O_18  and  C_19
   11  A    between atoms: C_19  and  C_20
   12  A    between atoms: C_22  and  C_23
   13  A    between atoms: C_27  and  C_28
   14  A    between atoms: C_29  and  C_30
   15  A    between atoms: C_41  and  C_42
                            x       y       z     vdW  Elec       q    Type
                         _______ _______ _______ _____ _____    ______ ____

>  <TORSDO>
F 15

>  <vina_affinity>
-7.0

>  <vina_rmsd_lb>
2.279

>  <vina_rmsd_ub>
5.319

$$$$
KHIVORIN
 OpenBabel09062217423D

 84 89  0  0  1  0  0  0  0  0999 V2000
  147.9540  174.7430  179.2390 C   0  0  1  0  0  0  0  0  0  0  0  0
  146.5950  175.3680  178.9040 C   0  0  0  0  0  0  0  0  0  0  0  0
  145.6070  175.1690  180.0830 C   0  0  2  0  0  0  0  0  0  0  0  0
  145.6690  173.7180  180.7380 C   0  0  0  0  0  0  0  0  0  0  0  0
  146.4070  172.7400  179.7500 C   0  0  2  0  0  0  0  0  0  0  0  0
  146.2170  171.2200  179.9910 C   0  0  0  0  0  0  0  0  0  0  0  0
  147.2950  170.3090  179.3620 C   0  0  2  0  0  0  0  0  0  0  0  0
  148.0020  170.8010  178.0280 C   0  0  2  0  0  0  0  0  0  0  0  0
  148.0970  172.3790  177.9450 C   0  0  2  0  0  0  0  0  0  0  0  0
  149.1470  172.8160  176.8810 C   0  0  0  0  0  0  0  0  0  0  0  0
  149.0910  171.9590  175.5710 C   0  0  0  0  0  0  0  0  0  0  0  0
  147.7420  171.1880  175.3420 C   0  0  1  0  0  0  0  0  0  0  0  0
  147.8420  170.1660  174.1560 C   0  0  1  0  0  0  0  0  0  0  0  0
  146.5580  169.5550  173.9560 O   0  0  0  0  0  0  0  0  0  0  0  0
  145.7150  169.2160  175.0280 C   0  0  0  0  0  0  0  0  0  0  0  0
  144.5930  168.6970  174.7980 O   0  0  0  0  0  0  0  0  0  0  0  0
  146.1540  169.4580  176.4460 C   0  0  1  0  0  0  0  0  0  0  0  0
  147.4550  168.9620  176.5530 O   0  0  0  0  0  0  0  0  0  0  0  0
  147.3330  170.3740  176.6540 C   0  0  2  0  0  0  0  0  0  0  0  0
  147.8900  173.1580  179.3270 C   0  0  1  0  0  0  0  0  0  0  0  0
  148.2060  175.1620  180.2360 H   0  0  0  0  0  0  0  0  0  0  0  0
  146.7030  176.4580  178.7180 H   0  0  0  0  0  0  0  0  0  0  0  0
  146.1950  174.9240  177.9660 H   0  0  0  0  0  0  0  0  0  0  0  0
  145.8950  175.9250  180.8500 H   0  0  0  0  0  0  0  0  0  0  0  0
  145.7620  172.8750  178.8520 H   0  0  0  0  0  0  0  0  0  0  0  0
  146.2020  171.0170  181.0830 H   0  0  0  0  0  0  0  0  0  0  0  0
  145.2210  170.9050  179.6010 H   0  0  0  0  0  0  0  0  0  0  0  0
  148.0900  170.2530  180.1380 H   0  0  0  0  0  0  0  0  0  0  0  0
  147.1890  172.7000  177.4160 H   0  0  0  0  0  0  0  0  0  0  0  0
  148.9380  173.8500  176.5440 H   0  0  0  0  0  0  0  0  0  0  0  0
  150.1700  172.8050  177.3110 H   0  0  0  0  0  0  0  0  0  0  0  0
  149.2730  172.6380  174.7080 H   0  0  0  0  0  0  0  0  0  0  0  0
  149.9490  171.2600  175.5460 H   0  0  0  0  0  0  0  0  0  0  0  0
  148.5700  169.3700  174.4290 H   0  0  0  0  0  0  0  0  0  0  0  0
  145.5050  169.1380  177.2830 H   0  0  0  0  0  0  0  0  0  0  0  0
  148.3360  170.7510  172.8540 C   0  0  0  0  0  0  0  0  0  0  0  0
  147.6160  171.4990  171.9430 C   0  0  0  0  0  0  0  0  0  0  0  0
  148.4910  171.7700  170.9100 C   0  0  0  0  0  0  0  0  0  0  0  0
  149.6600  171.2280  171.1650 O   0  0  0  0  0  0  0  0  0  0  0  0
  149.6010  170.6060  172.3180 C   0  0  0  0  0  0  0  0  0  0  0  0
  146.5800  171.8050  172.0170 H   0  0  0  0  0  0  0  0  0  0  0  0
  148.2620  172.3370  170.0180 H   0  0  0  0  0  0  0  0  0  0  0  0
  150.4240  170.0630  172.7640 H   0  0  0  0  0  0  0  0  0  0  0  0
  144.2310  173.1930  181.0150 C   0  0  0  0  0  0  0  0  0  0  0  0
  143.4800  174.0040  180.8940 H   0  0  0  0  0  0  0  0  0  0  0  0
  143.9550  172.3650  180.3280 H   0  0  0  0  0  0  0  0  0  0  0  0
  144.1490  172.7840  182.0450 H   0  0  0  0  0  0  0  0  0  0  0  0
  146.3780  173.7830  182.1130 C   0  0  0  0  0  0  0  0  0  0  0  0
  146.1930  172.8630  182.7040 H   0  0  0  0  0  0  0  0  0  0  0  0
  147.4700  173.9220  182.0250 H   0  0  0  0  0  0  0  0  0  0  0  0
  145.9950  174.6450  182.7000 H   0  0  0  0  0  0  0  0  0  0  0  0
  149.4300  170.1220  178.0580 C   0  0  0  0  0  0  0  0  0  0  0  0
  150.2640  170.8400  177.9420 H   0  0  0  0  0  0  0  0  0  0  0  0
  149.5820  169.4290  177.2000 H   0  0  0  0  0  0  0  0  0  0  0  0
  149.6370  169.5530  178.9790 H   0  0  0  0  0  0  0  0  0  0  0  0
  146.6270  172.2370  174.9950 C   0  0  0  0  0  0  0  0  0  0  0  0
  145.6100  171.8360  175.1860 H   0  0  0  0  0  0  0  0  0  0  0  0
  146.7220  173.1840  175.5670 H   0  0  0  0  0  0  0  0  0  0  0  0
  146.6580  172.5490  173.9340 H   0  0  0  0  0  0  0  0  0  0  0  0
  148.9550  172.7260  180.3930 C   0  0  0  0  0  0  0  0  0  0  0  0
  149.1160  173.4750  181.1980 H   0  0  0  0  0  0  0  0  0  0  0  0
  148.6700  171.8000  180.9290 H   0  0  0  0  0  0  0  0  0  0  0  0
  149.9570  172.6030  179.9590 H   0  0  0  0  0  0  0  0  0  0  0  0
  148.9810  175.2000  178.3640 O   0  0  0  0  0  0  0  0  0  0  0  0
  149.3480  176.5410  178.2050 C   0  0  0  0  0  0  0  0  0  0  0  0
  149.4440  177.0570  177.0570 O   0  0  0  0  0  0  0  0  0  0  0  0
  149.5640  177.3860  179.4130 C   0  0  0  0  0  0  0  0  0  0  0  0
  148.9990  178.3400  179.3250 H   0  0  0  0  0  0  0  0  0  0  0  0
  149.2180  176.8370  180.3140 H   0  0  0  0  0  0  0  0  0  0  0  0
  150.6440  177.6170  179.5200 H   0  0  0  0  0  0  0  0  0  0  0  0
  144.2980  175.4830  179.5910 O   0  0  0  0  0  0  0  0  0  0  0  0
  143.6420  176.7000  179.8190 C   0  0  0  0  0  0  0  0  0  0  0  0
  144.2450  177.6750  180.3410 O   0  0  0  0  0  0  0  0  0  0  0  0
  142.2130  176.8500  179.4250 C   0  0  0  0  0  0  0  0  0  0  0  0
  141.6660  177.4340  180.1950 H   0  0  0  0  0  0  0  0  0  0  0  0
  141.7430  175.8500  179.3250 H   0  0  0  0  0  0  0  0  0  0  0  0
  142.1470  177.3870  178.4560 H   0  0  0  0  0  0  0  0  0  0  0  0
  146.7970  168.9760  179.2270 O   0  0  0  0  0  0  0  0  0  0  0  0
  147.2390  167.8890  179.9890 C   0  0  0  0  0  0  0  0  0  0  0  0
  147.1940  167.9190  181.2490 O   0  0  0  0  0  0  0  0  0  0  0  0
  147.8210  166.7020  179.3010 C   0  0  0  0  0  0  0  0  0  0  0  0
  147.3390  165.7760  179.6800 H   0  0  0  0  0  0  0  0  0  0  0  0
  148.9110  166.6490  179.4960 H   0  0  0  0  0  0  0  0  0  0  0  0
  147.6530  166.7800  178.2080 H   0  0  0  0  0  0  0  0  0  0  0  0
  1 20  1  0  0  0  0
  1 21  1  1  0  0  0
  2  1  1  0  0  0  0
  2  3  1  0  0  0  0
  3  4  1  0  0  0  0
  3 24  1  1  0  0  0
  4 44  1  0  0  0  0
  4 48  1  0  0  0  0
  5 25  1  6  0  0  0
  5  6  1  0  0  0  0
  5  4  1  0  0  0  0
  6 26  1  0  0  0  0
  7  6  1  0  0  0  0
  7 28  1  1  0  0  0
  8 52  1  1  0  0  0
  8  7  1  0  0  0  0
  9 29  1  6  0  0  0
  9  8  1  0  0  0  0
  9 20  1  0  0  0  0
 10 31  1  0  0  0  0
 10  9  1  0  0  0  0
 11 10  1  0  0  0  0
 12 56  1  6  0  0  0
 12 11  1  0  0  0  0
 12 19  1  0  0  0  0
 13 34  1  1  0  0  0
 13 12  1  0  0  0  0
 14 13  1  0  0  0  0
 14 15  1  0  0  0  0
 15 17  1  0  0  0  0
 16 15  2  0  0  0  0
 17 18  1  0  0  0  0
 17 19  1  0  0  0  0
 17 35  1  1  0  0  0
 19 18  1  6  0  0  0
 19  8  1  0  0  0  0
 20  5  1  0  0  0  0
 20 60  1  1  0  0  0
 22  2  1  0  0  0  0
 23  2  1  0  0  0  0
 27  6  1  0  0  0  0
 30 10  1  0  0  0  0
 32 11  1  0  0  0  0
 33 11  1  0  0  0  0
 36 13  1  0  0  0  0
 37 41  1  0  0  0  0
 37 36  1  0  0  0  0
 38 39  1  0  0  0  0
 38 37  2  0  0  0  0
 39 40  1  0  0  0  0
 40 43  1  0  0  0  0
 40 36  2  0  0  0  0
 42 38  1  0  0  0  0
 44 47  1  0  0  0  0
 45 44  1  0  0  0  0
 46 44  1  0  0  0  0
 48 51  1  0  0  0  0
 48 49  1  0  0  0  0
 50 48  1  0  0  0  0
 52 55  1  0  0  0  0
 53 52  1  0  0  0  0
 54 52  1  0  0  0  0
 56 57  1  0  0  0  0
 56 58  1  0  0  0  0
 59 56  1  0  0  0  0
 60 62  1  0  0  0  0
 60 61  1  0  0  0  0
 63 60  1  0  0  0  0
 64  1  1  0  0  0  0
 65 64  1  0  0  0  0
 65 67  1  0  0  0  0
 66 65  2  0  0  0  0
 67 70  1  0  0  0  0
 67 69  1  0  0  0  0
 68 67  1  0  0  0  0
 71 72  1  0  0  0  0
 71  3  1  0  0  0  0
 72 73  2  0  0  0  0
 74 72  1  0  0  0  0
 74 75  1  0  0  0  0
 76 74  1  0  0  0  0
 77 74  1  0  0  0  0
 78  7  1  0  0  0  0
 78 79  1  0  0  0  0
 79 80  2  0  0  0  0
 81 83  1  0  0  0  0
 81 82  1  0  0  0  0
 81 79  1  0  0  0  0
 84 81  1  0  0  0  0
M  END
>  <MODEL>
4

>  <REMARK>
 VINA RESULT:      -7.0      2.507      7.451
  Name = KHIVORIN
  15 active torsions:
  status: ('A' for Active; 'I' for Inactive)
    1  A    between atoms: C_1  and  C_2
    2  A    between atoms: C_2  and  O_4
    3  A    between atoms: O_4  and  C_5
    4  A    between atoms: C_7  and  O_8
    5  A    between atoms: O_8  and  C_9
    6  A    between atoms: C_9  and  C_10
    7  A    between atoms: C_12  and  C_13
    8  A    between atoms: C_12  and  C_14
    9  A    between atoms: C_17  and  O_18
   10  A    between atoms: O_18  and  C_19
   11  A    between atoms: C_19  and  C_20
   12  A    between atoms: C_22  and  C_23
   13  A    between atoms: C_27  and  C_28
   14  A    between atoms: C_29  and  C_30
   15  A    between atoms: C_41  and  C_42
                            x       y       z     vdW  Elec       q    Type
                         _______ _______ _______ _____ _____    ______ ____

>  <TORSDO>
F 15

>  <vina_affinity>
-7.0

>  <vina_rmsd_lb>
2.507

>  <vina_rmsd_ub>
7.451

$$$$
KHIVORIN
 OpenBabel09062217423D

 84 89  0  0  1  0  0  0  0  0999 V2000
  147.4340  176.9580  177.9810 C   0  0  1  0  0  0  0  0  0  0  0  0
  146.1150  177.2530  177.2570 C   0  0  0  0  0  0  0  0  0  0  0  0
  145.6480  178.7010  177.5600 C   0  0  2  0  0  0  0  0  0  0  0  0
  145.8260  179.1300  179.0850 C   0  0  0  0  0  0  0  0  0  0  0  0
  146.0300  177.8380  179.9610 C   0  0  2  0  0  0  0  0  0  0  0  0
  145.8090  177.9820  181.4890 C   0  0  0  0  0  0  0  0  0  0  0  0
  146.4690  176.8900  182.3600 C   0  0  2  0  0  0  0  0  0  0  0  0
  146.6460  175.4410  181.7340 C   0  0  2  0  0  0  0  0  0  0  0  0
  146.8460  175.4860  180.1640 C   0  0  2  0  0  0  0  0  0  0  0  0
  147.4360  174.1420  179.6430 C   0  0  0  0  0  0  0  0  0  0  0  0
  146.7980  172.8830  180.3230 C   0  0  0  0  0  0  0  0  0  0  0  0
  145.4020  173.1310  180.9960 C   0  0  1  0  0  0  0  0  0  0  0  0
  144.9390  171.9070  181.8620 C   0  0  1  0  0  0  0  0  0  0  0  0
  143.6280  172.1720  182.3830 O   0  0  0  0  0  0  0  0  0  0  0  0
  143.2390  173.4500  182.8180 C   0  0  0  0  0  0  0  0  0  0  0  0
  142.0730  173.6340  183.2520 O   0  0  0  0  0  0  0  0  0  0  0  0
  144.2140  174.5950  182.7790 C   0  0  1  0  0  0  0  0  0  0  0  0
  145.4030  174.1280  183.3440 O   0  0  0  0  0  0  0  0  0  0  0  0
  145.4610  174.4090  181.9520 C   0  0  2  0  0  0  0  0  0  0  0  0
  147.2640  176.9060  179.5590 C   0  0  1  0  0  0  0  0  0  0  0  0
  148.0900  177.8100  177.7040 H   0  0  0  0  0  0  0  0  0  0  0  0
  146.2420  177.1490  176.1590 H   0  0  0  0  0  0  0  0  0  0  0  0
  145.3440  176.5110  177.5590 H   0  0  0  0  0  0  0  0  0  0  0  0
  146.2790  179.3620  176.9220 H   0  0  0  0  0  0  0  0  0  0  0  0
  145.1020  177.2880  179.6830 H   0  0  0  0  0  0  0  0  0  0  0  0
  146.2000  178.9650  181.8290 H   0  0  0  0  0  0  0  0  0  0  0  0
  144.7150  177.9890  181.7060 H   0  0  0  0  0  0  0  0  0  0  0  0
  147.4940  177.2780  182.5500 H   0  0  0  0  0  0  0  0  0  0  0  0
  145.8380  175.3940  179.7370 H   0  0  0  0  0  0  0  0  0  0  0  0
  147.2090  174.0200  178.5660 H   0  0  0  0  0  0  0  0  0  0  0  0
  148.5400  174.1270  179.7560 H   0  0  0  0  0  0  0  0  0  0  0  0
  146.6920  172.0900  179.5480 H   0  0  0  0  0  0  0  0  0  0  0  0
  147.5110  172.4500  181.0510 H   0  0  0  0  0  0  0  0  0  0  0  0
  145.6390  171.7880  182.7180 H   0  0  0  0  0  0  0  0  0  0  0  0
  143.9150  175.5850  183.1730 H   0  0  0  0  0  0  0  0  0  0  0  0
  144.9410  170.5810  181.1380 C   0  0  0  0  0  0  0  0  0  0  0  0
  145.7000  169.4660  181.4310 C   0  0  0  0  0  0  0  0  0  0  0  0
  145.3720  168.5290  180.4720 C   0  0  0  0  0  0  0  0  0  0  0  0
  144.4800  169.0320  179.6480 O   0  0  0  0  0  0  0  0  0  0  0  0
  144.2030  170.2600  180.0140 C   0  0  0  0  0  0  0  0  0  0  0  0
  146.4110  169.3490  182.2390 H   0  0  0  0  0  0  0  0  0  0  0  0
  145.7820  167.5320  180.3930 H   0  0  0  0  0  0  0  0  0  0  0  0
  143.5070  170.9100  179.5020 H   0  0  0  0  0  0  0  0  0  0  0  0
  144.5660  179.9000  179.5750 C   0  0  0  0  0  0  0  0  0  0  0  0
  143.7440  179.8350  178.8290 H   0  0  0  0  0  0  0  0  0  0  0  0
  144.1870  179.4990  180.5390 H   0  0  0  0  0  0  0  0  0  0  0  0
  144.8010  180.9710  179.7540 H   0  0  0  0  0  0  0  0  0  0  0  0
  147.0150  180.1100  179.2270 C   0  0  0  0  0  0  0  0  0  0  0  0
  147.8310  179.8560  178.5200 H   0  0  0  0  0  0  0  0  0  0  0  0
  146.7260  181.1620  179.0560 H   0  0  0  0  0  0  0  0  0  0  0  0
  147.4310  180.0590  180.2560 H   0  0  0  0  0  0  0  0  0  0  0  0
  147.9050  174.8360  182.4750 C   0  0  0  0  0  0  0  0  0  0  0  0
  148.8710  175.1600  182.0440 H   0  0  0  0  0  0  0  0  0  0  0  0
  147.9540  173.7270  182.3800 H   0  0  0  0  0  0  0  0  0  0  0  0
  147.9500  175.0730  183.5500 H   0  0  0  0  0  0  0  0  0  0  0  0
  144.3400  173.3600  179.8620 C   0  0  0  0  0  0  0  0  0  0  0  0
  143.8450  172.4130  179.5640 H   0  0  0  0  0  0  0  0  0  0  0  0
  143.5410  174.0760  180.1470 H   0  0  0  0  0  0  0  0  0  0  0  0
  144.7870  173.7930  178.9470 H   0  0  0  0  0  0  0  0  0  0  0  0
  148.6140  177.4140  180.1710 C   0  0  0  0  0  0  0  0  0  0  0  0
  149.1530  178.1440  179.5310 H   0  0  0  0  0  0  0  0  0  0  0  0
  148.4730  177.9430  181.1350 H   0  0  0  0  0  0  0  0  0  0  0  0
  149.3460  176.6050  180.3030 H   0  0  0  0  0  0  0  0  0  0  0  0
  148.0780  175.7980  177.4630 O   0  0  0  0  0  0  0  0  0  0  0  0
  149.3700  175.7830  176.9240 C   0  0  0  0  0  0  0  0  0  0  0  0
  149.8420  176.7950  176.3380 O   0  0  0  0  0  0  0  0  0  0  0  0
  150.2200  174.5720  177.1050 C   0  0  0  0  0  0  0  0  0  0  0  0
  149.9230  173.7790  176.3840 H   0  0  0  0  0  0  0  0  0  0  0  0
  151.2840  174.8410  176.9370 H   0  0  0  0  0  0  0  0  0  0  0  0
  150.1010  174.1830  178.1370 H   0  0  0  0  0  0  0  0  0  0  0  0
  144.2860  178.8010  177.1270 O   0  0  0  0  0  0  0  0  0  0  0  0
  143.8960  179.0390  175.8030 C   0  0  0  0  0  0  0  0  0  0  0  0
  144.6810  179.5870  174.9830 O   0  0  0  0  0  0  0  0  0  0  0  0
  142.5380  178.6270  175.3510 C   0  0  0  0  0  0  0  0  0  0  0  0
  142.6060  177.7130  174.7240 H   0  0  0  0  0  0  0  0  0  0  0  0
  142.0750  179.4420  174.7560 H   0  0  0  0  0  0  0  0  0  0  0  0
  141.9010  178.4080  176.2330 H   0  0  0  0  0  0  0  0  0  0  0  0
  145.8380  176.8310  183.6410 O   0  0  0  0  0  0  0  0  0  0  0  0
  146.0100  177.7860  184.6490 C   0  0  0  0  0  0  0  0  0  0  0  0
  145.0510  178.1210  185.3960 O   0  0  0  0  0  0  0  0  0  0  0  0
  147.3320  178.4560  184.8040 C   0  0  0  0  0  0  0  0  0  0  0  0
  147.4830  178.7450  185.8650 H   0  0  0  0  0  0  0  0  0  0  0  0
  147.3710  179.3660  184.1710 H   0  0  0  0  0  0  0  0  0  0  0  0
  148.1420  177.7670  184.4930 H   0  0  0  0  0  0  0  0  0  0  0  0
  1 21  1  6  0  0  0
  1 20  1  0  0  0  0
  2 23  1  0  0  0  0
  2  3  1  0  0  0  0
  2  1  1  0  0  0  0
  3 24  1  6  0  0  0
  3  4  1  0  0  0  0
  4 48  1  0  0  0  0
  4 44  1  0  0  0  0
  4  5  1  0  0  0  0
  5 25  1  6  0  0  0
  5  6  1  0  0  0  0
  6 27  1  0  0  0  0
  6 26  1  0  0  0  0
  6  7  1  0  0  0  0
  7 28  1  1  0  0  0
  7 78  1  0  0  0  0
  8 19  1  0  0  0  0
  8  7  1  0  0  0  0
  8 52  1  1  0  0  0
  9 29  1  6  0  0  0
  9  8  1  0  0  0  0
 10 31  1  0  0  0  0
 10  9  1  0  0  0  0
 10 11  1  0  0  0  0
 11 12  1  0  0  0  0
 11 33  1  0  0  0  0
 12 56  1  6  0  0  0
 12 13  1  0  0  0  0
 12 19  1  0  0  0  0
 13 14  1  0  0  0  0
 13 34  1  1  0  0  0
 14 15  1  0  0  0  0
 15 16  2  0  0  0  0
 17 15  1  0  0  0  0
 17 35  1  1  0  0  0
 17 18  1  0  0  0  0
 19 17  1  0  0  0  0
 19 18  1  1  0  0  0
 20  5  1  0  0  0  0
 20  9  1  0  0  0  0
 20 60  1  1  0  0  0
 22  2  1  0  0  0  0
 30 10  1  0  0  0  0
 32 11  1  0  0  0  0
 36 37  1  0  0  0  0
 36 13  1  0  0  0  0
 37 41  1  0  0  0  0
 38 37  2  0  0  0  0
 39 40  1  0  0  0  0
 39 38  1  0  0  0  0
 40 36  2  0  0  0  0
 42 38  1  0  0  0  0
 43 40  1  0  0  0  0
 44 47  1  0  0  0  0
 44 46  1  0  0  0  0
 45 44  1  0  0  0  0
 48 51  1  0  0  0  0
 49 48  1  0  0  0  0
 50 48  1  0  0  0  0
 52 55  1  0  0  0  0
 53 52  1  0  0  0  0
 54 52  1  0  0  0  0
 56 58  1  0  0  0  0
 57 56  1  0  0  0  0
 59 56  1  0  0  0  0
 60 63  1  0  0  0  0
 60 62  1  0  0  0  0
 61 60  1  0  0  0  0
 64  1  1  0  0  0  0
 65 67  1  0  0  0  0
 65 64  1  0  0  0  0
 66 65  2  0  0  0  0
 67 70  1  0  0  0  0
 68 67  1  0  0  0  0
 69 67  1  0  0  0  0
 71  3  1  0  0  0  0
 72 71  1  0  0  0  0
 73 72  2  0  0  0  0
 74 72  1  0  0  0  0
 74 77  1  0  0  0  0
 75 74  1  0  0  0  0
 76 74  1  0  0  0  0
 78 79  1  0  0  0  0
 79 81  1  0  0  0  0
 79 80  2  0  0  0  0
 81 82  1  0  0  0  0
 83 81  1  0  0  0  0
 84 81  1  0  0  0  0
M  END
>  <MODEL>
5

>  <REMARK>
 VINA RESULT:      -6.9      3.166      8.404
  Name = KHIVORIN
  15 active torsions:
  status: ('A' for Active; 'I' for Inactive)
    1  A    between atoms: C_1  and  C_2
    2  A    between atoms: C_2  and  O_4
    3  A    between atoms: O_4  and  C_5
    4  A    between atoms: C_7  and  O_8
    5  A    between atoms: O_8  and  C_9
    6  A    between atoms: C_9  and  C_10
    7  A    between atoms: C_12  and  C_13
    8  A    between atoms: C_12  and  C_14
    9  A    between atoms: C_17  and  O_18
   10  A    between atoms: O_18  and  C_19
   11  A    between atoms: C_19  and  C_20
   12  A    between atoms: C_22  and  C_23
   13  A    between atoms: C_27  and  C_28
   14  A    between atoms: C_29  and  C_30
   15  A    between atoms: C_41  and  C_42
                            x       y       z     vdW  Elec       q    Type
                         _______ _______ _______ _____ _____    ______ ____

>  <TORSDO>
F 15

>  <vina_affinity>
-6.9

>  <vina_rmsd_lb>
3.166

>  <vina_rmsd_ub>
8.404

$$$$
KHIVORIN
 OpenBabel09062217423D

 84 89  0  0  1  0  0  0  0  0999 V2000
  147.6350  169.2960  176.8160 C   0  0  1  0  0  0  0  0  0  0  0  0
  149.0650  169.0290  177.2980 C   0  0  0  0  0  0  0  0  0  0  0  0
  149.0880  167.8200  178.2690 C   0  0  2  0  0  0  0  0  0  0  0  0
  147.8870  167.8120  179.3170 C   0  0  0  0  0  0  0  0  0  0  0  0
  147.2410  169.2460  179.3670 C   0  0  2  0  0  0  0  0  0  0  0  0
  146.3490  169.5740  180.5930 C   0  0  0  0  0  0  0  0  0  0  0  0
  145.3580  170.7440  180.3990 C   0  0  2  0  0  0  0  0  0  0  0  0
  145.7670  171.9100  179.4020 C   0  0  2  0  0  0  0  0  0  0  0  0
  146.6880  171.3960  178.2210 C   0  0  2  0  0  0  0  0  0  0  0  0
  146.7160  172.4260  177.0520 C   0  0  0  0  0  0  0  0  0  0  0  0
  146.8130  173.9110  177.5410 C   0  0  0  0  0  0  0  0  0  0  0  0
  147.3520  174.0920  179.0050 C   0  0  1  0  0  0  0  0  0  0  0  0
  147.1930  175.5670  179.5130 C   0  0  1  0  0  0  0  0  0  0  0  0
  147.7710  175.6760  180.8220 O   0  0  0  0  0  0  0  0  0  0  0  0
  147.6600  174.6520  181.7770 C   0  0  0  0  0  0  0  0  0  0  0  0
  148.1990  174.7890  182.9060 O   0  0  0  0  0  0  0  0  0  0  0  0
  146.8900  173.3990  181.4620 C   0  0  1  0  0  0  0  0  0  0  0  0
  145.6750  173.8050  180.9050 O   0  0  0  0  0  0  0  0  0  0  0  0
  146.5600  173.1400  180.0140 C   0  0  2  0  0  0  0  0  0  0  0  0
  146.6870  169.8150  177.9800 C   0  0  1  0  0  0  0  0  0  0  0  0
  147.2810  168.3060  176.4600 H   0  0  0  0  0  0  0  0  0  0  0  0
  149.7290  168.8000  176.4380 H   0  0  0  0  0  0  0  0  0  0  0  0
  149.4780  169.9420  177.7830 H   0  0  0  0  0  0  0  0  0  0  0  0
  149.0130  166.9130  177.6260 H   0  0  0  0  0  0  0  0  0  0  0  0
  148.1470  169.8410  179.6250 H   0  0  0  0  0  0  0  0  0  0  0  0
  145.7580  168.6760  180.8720 H   0  0  0  0  0  0  0  0  0  0  0  0
  146.9970  169.8060  181.4710 H   0  0  0  0  0  0  0  0  0  0  0  0
  144.4530  170.2630  179.9670 H   0  0  0  0  0  0  0  0  0  0  0  0
  147.7190  171.5280  178.5750 H   0  0  0  0  0  0  0  0  0  0  0  0
  147.6240  172.2760  176.4370 H   0  0  0  0  0  0  0  0  0  0  0  0
  145.8370  172.2910  176.3890 H   0  0  0  0  0  0  0  0  0  0  0  0
  147.4790  174.4610  176.8380 H   0  0  0  0  0  0  0  0  0  0  0  0
  145.8310  174.4080  177.4220 H   0  0  0  0  0  0  0  0  0  0  0  0
  146.1080  175.8060  179.5880 H   0  0  0  0  0  0  0  0  0  0  0  0
  146.7640  172.6220  182.2400 H   0  0  0  0  0  0  0  0  0  0  0  0
  147.7860  176.6190  178.6050 C   0  0  0  0  0  0  0  0  0  0  0  0
  149.0270  177.2160  178.7100 C   0  0  0  0  0  0  0  0  0  0  0  0
  149.0910  178.1260  177.6740 C   0  0  0  0  0  0  0  0  0  0  0  0
  147.9720  178.0940  176.9850 O   0  0  0  0  0  0  0  0  0  0  0  0
  147.1670  177.2060  177.5180 C   0  0  0  0  0  0  0  0  0  0  0  0
  149.7890  177.0190  179.4530 H   0  0  0  0  0  0  0  0  0  0  0  0
  149.9250  178.7770  177.4540 H   0  0  0  0  0  0  0  0  0  0  0  0
  146.1730  176.9840  177.1540 H   0  0  0  0  0  0  0  0  0  0  0  0
  148.4120  167.4260  180.7300 C   0  0  0  0  0  0  0  0  0  0  0  0
  147.5790  167.3740  181.4640 H   0  0  0  0  0  0  0  0  0  0  0  0
  148.9250  166.4410  180.7230 H   0  0  0  0  0  0  0  0  0  0  0  0
  149.1600  168.1640  181.0910 H   0  0  0  0  0  0  0  0  0  0  0  0
  146.8490  166.7310  178.9300 C   0  0  0  0  0  0  0  0  0  0  0  0
  147.2770  166.0060  178.2070 H   0  0  0  0  0  0  0  0  0  0  0  0
  146.4730  166.1670  179.8010 H   0  0  0  0  0  0  0  0  0  0  0  0
  145.9660  167.2040  178.4520 H   0  0  0  0  0  0  0  0  0  0  0  0
  144.3920  172.4860  178.8740 C   0  0  0  0  0  0  0  0  0  0  0  0
  144.4490  173.5410  178.5480 H   0  0  0  0  0  0  0  0  0  0  0  0
  143.6170  172.5170  179.6730 H   0  0  0  0  0  0  0  0  0  0  0  0
  143.9660  171.9230  178.0270 H   0  0  0  0  0  0  0  0  0  0  0  0
  148.8800  173.7300  179.0160 C   0  0  0  0  0  0  0  0  0  0  0  0
  149.1180  172.9730  179.7910 H   0  0  0  0  0  0  0  0  0  0  0  0
  149.2440  173.3350  178.0450 H   0  0  0  0  0  0  0  0  0  0  0  0
  149.5200  174.6100  179.2160 H   0  0  0  0  0  0  0  0  0  0  0  0
  145.2480  169.2860  177.6550 C   0  0  0  0  0  0  0  0  0  0  0  0
  145.2260  168.4850  176.8860 H   0  0  0  0  0  0  0  0  0  0  0  0
  144.7490  168.8380  178.5370 H   0  0  0  0  0  0  0  0  0  0  0  0
  144.6020  170.0640  177.2270 H   0  0  0  0  0  0  0  0  0  0  0  0
  147.6080  170.1440  175.6710 O   0  0  0  0  0  0  0  0  0  0  0  0
  146.8050  169.9300  174.5450 C   0  0  0  0  0  0  0  0  0  0  0  0
  146.1900  168.8400  174.3840 O   0  0  0  0  0  0  0  0  0  0  0  0
  146.6250  171.0320  173.5580 C   0  0  0  0  0  0  0  0  0  0  0  0
  147.4700  171.0450  172.8350 H   0  0  0  0  0  0  0  0  0  0  0  0
  145.6730  170.8810  173.0070 H   0  0  0  0  0  0  0  0  0  0  0  0
  146.5900  172.0060  174.0880 H   0  0  0  0  0  0  0  0  0  0  0  0
  150.3680  167.8260  178.9160 O   0  0  0  0  0  0  0  0  0  0  0  0
  151.3120  166.7980  178.8010 C   0  0  0  0  0  0  0  0  0  0  0  0
  152.5420  167.0260  178.9510 O   0  0  0  0  0  0  0  0  0  0  0  0
  150.8560  165.4090  178.5120 C   0  0  0  0  0  0  0  0  0  0  0  0
  151.4980  164.6790  179.0480 H   0  0  0  0  0  0  0  0  0  0  0  0
  150.9140  165.2130  177.4210 H   0  0  0  0  0  0  0  0  0  0  0  0
  149.8080  165.2820  178.8540 H   0  0  0  0  0  0  0  0  0  0  0  0
  144.9500  171.2610  181.6670 O   0  0  0  0  0  0  0  0  0  0  0  0
  143.7210  170.9780  182.2740 C   0  0  0  0  0  0  0  0  0  0  0  0
  143.4210  169.8020  182.6150 O   0  0  0  0  0  0  0  0  0  0  0  0
  142.7320  172.0760  182.4690 C   0  0  0  0  0  0  0  0  0  0  0  0
  141.7340  171.6450  182.6930 H   0  0  0  0  0  0  0  0  0  0  0  0
  142.6630  172.6910  181.5490 H   0  0  0  0  0  0  0  0  0  0  0  0
  143.0490  172.7230  183.3110 H   0  0  0  0  0  0  0  0  0  0  0  0
  1 21  1  6  0  0  0
  1  2  1  0  0  0  0
  1 20  1  0  0  0  0
  2 23  1  0  0  0  0
  2  3  1  0  0  0  0
  3 24  1  6  0  0  0
  3 71  1  0  0  0  0
  3  4  1  0  0  0  0
  4  5  1  0  0  0  0
  4 44  1  0  0  0  0
  5 25  1  1  0  0  0
  5  6  1  0  0  0  0
  6 26  1  0  0  0  0
  6 27  1  0  0  0  0
  7 28  1  6  0  0  0
  7  6  1  0  0  0  0
  7 78  1  0  0  0  0
  8 52  1  6  0  0  0
  8 19  1  0  0  0  0
  8  7  1  0  0  0  0
  9 29  1  1  0  0  0
  9  8  1  0  0  0  0
 10 11  1  0  0  0  0
 10  9  1  0  0  0  0
 11 12  1  0  0  0  0
 12 56  1  1  0  0  0
 12 13  1  0  0  0  0
 12 19  1  0  0  0  0
 13 34  1  1  0  0  0
 13 14  1  0  0  0  0
 14 15  1  0  0  0  0
 15 16  2  0  0  0  0
 17 15  1  0  0  0  0
 17 35  1  1  0  0  0
 18 17  1  0  0  0  0
 19 18  1  1  0  0  0
 19 17  1  0  0  0  0
 20 60  1  6  0  0  0
 20  9  1  0  0  0  0
 20  5  1  0  0  0  0
 22  2  1  0  0  0  0
 30 10  1  0  0  0  0
 31 10  1  0  0  0  0
 32 11  1  0  0  0  0
 33 11  1  0  0  0  0
 36 37  1  0  0  0  0
 36 13  1  0  0  0  0
 37 41  1  0  0  0  0
 38 37  2  0  0  0  0
 39 40  1  0  0  0  0
 39 38  1  0  0  0  0
 40 36  2  0  0  0  0
 42 38  1  0  0  0  0
 43 40  1  0  0  0  0
 44 47  1  0  0  0  0
 44 45  1  0  0  0  0
 46 44  1  0  0  0  0
 48  4  1  0  0  0  0
 48 50  1  0  0  0  0
 49 48  1  0  0  0  0
 51 48  1  0  0  0  0
 52 54  1  0  0  0  0
 53 52  1  0  0  0  0
 55 52  1  0  0  0  0
 56 59  1  0  0  0  0
 56 57  1  0  0  0  0
 58 56  1  0  0  0  0
 60 62  1  0  0  0  0
 61 60  1  0  0  0  0
 63 60  1  0  0  0  0
 64  1  1  0  0  0  0
 65 64  1  0  0  0  0
 66 65  2  0  0  0  0
 67 70  1  0  0  0  0
 67 65  1  0  0  0  0
 68 67  1  0  0  0  0
 69 67  1  0  0  0  0
 72 71  1  0  0  0  0
 72 73  2  0  0  0  0
 74 72  1  0  0  0  0
 74 77  1  0  0  0  0
 74 75  1  0  0  0  0
 76 74  1  0  0  0  0
 78 79  1  0  0  0  0
 79 81  1  0  0  0  0
 79 80  2  0  0  0  0
 81 82  1  0  0  0  0
 81 84  1  0  0  0  0
 83 81  1  0  0  0  0
M  END
>  <MODEL>
6

>  <REMARK>
 VINA RESULT:      -6.7      2.369      6.056
  Name = KHIVORIN
  15 active torsions:
  status: ('A' for Active; 'I' for Inactive)
    1  A    between atoms: C_1  and  C_2
    2  A    between atoms: C_2  and  O_4
    3  A    between atoms: O_4  and  C_5
    4  A    between atoms: C_7  and  O_8
    5  A    between atoms: O_8  and  C_9
    6  A    between atoms: C_9  and  C_10
    7  A    between atoms: C_12  and  C_13
    8  A    between atoms: C_12  and  C_14
    9  A    between atoms: C_17  and  O_18
   10  A    between atoms: O_18  and  C_19
   11  A    between atoms: C_19  and  C_20
   12  A    between atoms: C_22  and  C_23
   13  A    between atoms: C_27  and  C_28
   14  A    between atoms: C_29  and  C_30
   15  A    between atoms: C_41  and  C_42
                            x       y       z     vdW  Elec       q    Type
                         _______ _______ _______ _____ _____    ______ ____

>  <TORSDO>
F 15

>  <vina_affinity>
-6.7

>  <vina_rmsd_lb>
2.369

>  <vina_rmsd_ub>
6.056

$$$$
KHIVORIN
 OpenBabel09062217423D

 84 89  0  0  1  0  0  0  0  0999 V2000
  148.1320  174.9910  180.1750 C   0  0  1  0  0  0  0  0  0  0  0  0
  146.9300  175.8270  179.7200 C   0  0  0  0  0  0  0  0  0  0  0  0
  145.8500  175.8640  180.8320 C   0  0  2  0  0  0  0  0  0  0  0  0
  145.6100  174.4590  181.5460 C   0  0  0  0  0  0  0  0  0  0  0  0
  146.2240  173.3180  180.6510 C   0  0  2  0  0  0  0  0  0  0  0  0
  145.7520  171.8690  180.9360 C   0  0  0  0  0  0  0  0  0  0  0  0
  146.6870  170.7530  180.4200 C   0  0  2  0  0  0  0  0  0  0  0  0
  147.5550  171.0460  179.1230 C   0  0  2  0  0  0  0  0  0  0  0  0
  147.9340  172.5770  178.9860 C   0  0  2  0  0  0  0  0  0  0  0  0
  149.1100  172.7690  177.9840 C   0  0  0  0  0  0  0  0  0  0  0  0
  148.9860  171.8700  176.7070 C   0  0  0  0  0  0  0  0  0  0  0  0
  147.5390  171.3370  176.4130 C   0  0  1  0  0  0  0  0  0  0  0  0
  147.5300  170.2540  175.2760 C   0  0  1  0  0  0  0  0  0  0  0  0
  146.1730  169.8690  175.0090 O   0  0  0  0  0  0  0  0  0  0  0  0
  145.2170  169.7360  176.0300 C   0  0  0  0  0  0  0  0  0  0  0  0
  144.0370  169.4110  175.7410 O   0  0  0  0  0  0  0  0  0  0  0  0
  145.6010  169.9690  177.4650 C   0  0  1  0  0  0  0  0  0  0  0  0
  146.7830  169.2590  177.6840 O   0  0  0  0  0  0  0  0  0  0  0  0
  146.9090  170.6740  177.7220 C   0  0  2  0  0  0  0  0  0  0  0  0
  147.7820  173.4490  180.3190 C   0  0  1  0  0  0  0  0  0  0  0  0
  148.3900  175.4100  181.1700 H   0  0  0  0  0  0  0  0  0  0  0  0
  147.2420  176.8700  179.5000 H   0  0  0  0  0  0  0  0  0  0  0  0
  146.5180  175.4130  178.7730 H   0  0  0  0  0  0  0  0  0  0  0  0
  146.2190  176.5950  181.5880 H   0  0  0  0  0  0  0  0  0  0  0  0
  145.6710  173.5190  179.7050 H   0  0  0  0  0  0  0  0  0  0  0  0
  145.6300  171.7270  182.0310 H   0  0  0  0  0  0  0  0  0  0  0  0
  144.7420  171.7140  180.4880 H   0  0  0  0  0  0  0  0  0  0  0  0
  147.4080  170.5980  181.2530 H   0  0  0  0  0  0  0  0  0  0  0  0
  147.1330  173.0250  178.3820 H   0  0  0  0  0  0  0  0  0  0  0  0
  149.1110  173.8050  177.5940 H   0  0  0  0  0  0  0  0  0  0  0  0
  150.0850  172.6000  178.4860 H   0  0  0  0  0  0  0  0  0  0  0  0
  149.3400  172.4620  175.8330 H   0  0  0  0  0  0  0  0  0  0  0  0
  149.7050  171.0310  176.7700 H   0  0  0  0  0  0  0  0  0  0  0  0
  148.0860  169.3580  175.6310 H   0  0  0  0  0  0  0  0  0  0  0  0
  144.8540  169.8110  178.2660 H   0  0  0  0  0  0  0  0  0  0  0  0
  148.2020  170.6780  173.9920 C   0  0  0  0  0  0  0  0  0  0  0  0
  149.5550  170.8430  173.7670 C   0  0  0  0  0  0  0  0  0  0  0  0
  149.6650  171.2680  172.4580 C   0  0  0  0  0  0  0  0  0  0  0  0
  148.4710  171.3590  171.9180 O   0  0  0  0  0  0  0  0  0  0  0  0
  147.5710  171.0180  172.8110 C   0  0  0  0  0  0  0  0  0  0  0  0
  150.3620  170.6830  174.4700 H   0  0  0  0  0  0  0  0  0  0  0  0
  150.5870  171.4990  171.9430 H   0  0  0  0  0  0  0  0  0  0  0  0
  146.5040  171.0150  172.6340 H   0  0  0  0  0  0  0  0  0  0  0  0
  144.0880  174.2090  181.7390 C   0  0  0  0  0  0  0  0  0  0  0  0
  143.5010  175.1280  181.5210 H   0  0  0  0  0  0  0  0  0  0  0  0
  143.7150  173.4000  181.0750 H   0  0  0  0  0  0  0  0  0  0  0  0
  143.8670  173.8840  182.7790 H   0  0  0  0  0  0  0  0  0  0  0  0
  146.2310  174.4690  182.9640 C   0  0  0  0  0  0  0  0  0  0  0  0
  145.4500  174.5820  183.7430 H   0  0  0  0  0  0  0  0  0  0  0  0
  146.8080  173.5530  183.1850 H   0  0  0  0  0  0  0  0  0  0  0  0
  146.9370  175.3200  183.0660 H   0  0  0  0  0  0  0  0  0  0  0  0
  148.8340  170.1300  179.2810 C   0  0  0  0  0  0  0  0  0  0  0  0
  148.9210  169.6600  180.2780 H   0  0  0  0  0  0  0  0  0  0  0  0
  149.7790  170.7140  179.2000 H   0  0  0  0  0  0  0  0  0  0  0  0
  148.8920  169.3100  178.5460 H   0  0  0  0  0  0  0  0  0  0  0  0
  146.6530  172.5460  175.9460 C   0  0  0  0  0  0  0  0  0  0  0  0
  145.9650  172.8860  176.7480 H   0  0  0  0  0  0  0  0  0  0  0  0
  147.2470  173.4270  175.6250 H   0  0  0  0  0  0  0  0  0  0  0  0
  146.0280  172.2970  175.0680 H   0  0  0  0  0  0  0  0  0  0  0  0
  148.6830  172.8920  181.4740 C   0  0  0  0  0  0  0  0  0  0  0  0
  148.6040  173.4630  182.4230 H   0  0  0  0  0  0  0  0  0  0  0  0
  148.4220  171.8520  181.7540 H   0  0  0  0  0  0  0  0  0  0  0  0
  149.7540  172.9470  181.2350 H   0  0  0  0  0  0  0  0  0  0  0  0
  149.2780  175.2170  179.3590 O   0  0  0  0  0  0  0  0  0  0  0  0
  150.4740  175.7860  179.8110 C   0  0  0  0  0  0  0  0  0  0  0  0
  151.5870  175.2550  179.5440 O   0  0  0  0  0  0  0  0  0  0  0  0
  150.4310  177.0720  180.5630 C   0  0  0  0  0  0  0  0  0  0  0  0
  151.0280  176.9930  181.4980 H   0  0  0  0  0  0  0  0  0  0  0  0
  150.8470  177.8830  179.9290 H   0  0  0  0  0  0  0  0  0  0  0  0
  149.3810  177.3160  180.8260 H   0  0  0  0  0  0  0  0  0  0  0  0
  144.6520  176.3770  180.2360 O   0  0  0  0  0  0  0  0  0  0  0  0
  144.4590  177.7200  179.8870 C   0  0  0  0  0  0  0  0  0  0  0  0
  144.0320  178.0390  178.7450 O   0  0  0  0  0  0  0  0  0  0  0  0
  144.7490  178.7880  180.8830 C   0  0  0  0  0  0  0  0  0  0  0  0
  143.9260  178.8490  181.6260 H   0  0  0  0  0  0  0  0  0  0  0  0
  144.8480  179.7660  180.3690 H   0  0  0  0  0  0  0  0  0  0  0  0
  145.6940  178.5550  181.4160 H   0  0  0  0  0  0  0  0  0  0  0  0
  145.9700  169.5230  180.3010 O   0  0  0  0  0  0  0  0  0  0  0  0
  146.1070  168.4420  181.1800 C   0  0  0  0  0  0  0  0  0  0  0  0
  145.8030  168.5550  182.3980 O   0  0  0  0  0  0  0  0  0  0  0  0
  146.6720  167.1580  180.6770 C   0  0  0  0  0  0  0  0  0  0  0  0
  146.0640  166.7890  179.8250 H   0  0  0  0  0  0  0  0  0  0  0  0
  146.6630  166.3990  181.4860 H   0  0  0  0  0  0  0  0  0  0  0  0
  147.7170  167.3130  180.3400 H   0  0  0  0  0  0  0  0  0  0  0  0
  1 20  1  0  0  0  0
  1 21  1  1  0  0  0
  2  1  1  0  0  0  0
  2  3  1  0  0  0  0
  3  4  1  0  0  0  0
  3 24  1  1  0  0  0
  4 44  1  0  0  0  0
  4 48  1  0  0  0  0
  5 25  1  6  0  0  0
  5  6  1  0  0  0  0
  5  4  1  0  0  0  0
  6 26  1  0  0  0  0
  7  6  1  0  0  0  0
  7 28  1  1  0  0  0
  8 52  1  1  0  0  0
  8  7  1  0  0  0  0
  9 29  1  6  0  0  0
  9  8  1  0  0  0  0
  9 20  1  0  0  0  0
 10 31  1  0  0  0  0
 10  9  1  0  0  0  0
 11 33  1  0  0  0  0
 11 10  1  0  0  0  0
 12 56  1  6  0  0  0
 12 11  1  0  0  0  0
 12 19  1  0  0  0  0
 13 34  1  1  0  0  0
 13 12  1  0  0  0  0
 14 13  1  0  0  0  0
 14 15  1  0  0  0  0
 15 17  1  0  0  0  0
 16 15  2  0  0  0  0
 17 18  1  0  0  0  0
 17 19  1  0  0  0  0
 17 35  1  1  0  0  0
 19 18  1  6  0  0  0
 19  8  1  0  0  0  0
 20  5  1  0  0  0  0
 20 60  1  1  0  0  0
 22  2  1  0  0  0  0
 23  2  1  0  0  0  0
 27  6  1  0  0  0  0
 30 10  1  0  0  0  0
 32 11  1  0  0  0  0
 36 13  1  0  0  0  0
 37 36  1  0  0  0  0
 37 41  1  0  0  0  0
 38 37  2  0  0  0  0
 39 38  1  0  0  0  0
 39 40  1  0  0  0  0
 40 36  2  0  0  0  0
 42 38  1  0  0  0  0
 43 40  1  0  0  0  0
 44 47  1  0  0  0  0
 45 44  1  0  0  0  0
 46 44  1  0  0  0  0
 48 51  1  0  0  0  0
 48 50  1  0  0  0  0
 48 49  1  0  0  0  0
 52 53  1  0  0  0  0
 54 52  1  0  0  0  0
 55 52  1  0  0  0  0
 56 57  1  0  0  0  0
 58 56  1  0  0  0  0
 59 56  1  0  0  0  0
 60 62  1  0  0  0  0
 60 61  1  0  0  0  0
 63 60  1  0  0  0  0
 64 65  1  0  0  0  0
 64  1  1  0  0  0  0
 65 67  1  0  0  0  0
 66 65  2  0  0  0  0
 67 70  1  0  0  0  0
 67 68  1  0  0  0  0
 69 67  1  0  0  0  0
 71  3  1  0  0  0  0
 72 71  1  0  0  0  0
 72 74  1  0  0  0  0
 73 72  2  0  0  0  0
 74 77  1  0  0  0  0
 74 75  1  0  0  0  0
 76 74  1  0  0  0  0
 78  7  1  0  0  0  0
 78 79  1  0  0  0  0
 79 80  2  0  0  0  0
 81 79  1  0  0  0  0
 81 83  1  0  0  0  0
 82 81  1  0  0  0  0
 84 81  1  0  0  0  0
M  END
>  <MODEL>
7

>  <REMARK>
 VINA RESULT:      -6.6      2.475      7.458
  Name = KHIVORIN
  15 active torsions:
  status: ('A' for Active; 'I' for Inactive)
    1  A    between atoms: C_1  and  C_2
    2  A    between atoms: C_2  and  O_4
    3  A    between atoms: O_4  and  C_5
    4  A    between atoms: C_7  and  O_8
    5  A    between atoms: O_8  and  C_9
    6  A    between atoms: C_9  and  C_10
    7  A    between atoms: C_12  and  C_13
    8  A    between atoms: C_12  and  C_14
    9  A    between atoms: C_17  and  O_18
   10  A    between atoms: O_18  and  C_19
   11  A    between atoms: C_19  and  C_20
   12  A    between atoms: C_22  and  C_23
   13  A    between atoms: C_27  and  C_28
   14  A    between atoms: C_29  and  C_30
   15  A    between atoms: C_41  and  C_42
                            x       y       z     vdW  Elec       q    Type
                         _______ _______ _______ _____ _____    ______ ____

>  <TORSDO>
F 15

>  <vina_affinity>
-6.6

>  <vina_rmsd_lb>
2.475

>  <vina_rmsd_ub>
7.458

$$$$
KHIVORIN
 OpenBabel09062217423D

 84 89  0  0  1  0  0  0  0  0999 V2000
  144.8520  172.2060  179.9320 C   0  0  1  0  0  0  0  0  0  0  0  0
  144.3740  171.9180  178.5040 C   0  0  0  0  0  0  0  0  0  0  0  0
  145.4490  171.1110  177.7300 C   0  0  2  0  0  0  0  0  0  0  0  0
  146.9390  171.6200  177.9770 C   0  0  0  0  0  0  0  0  0  0  0  0
  146.8910  173.0640  178.6020 C   0  0  2  0  0  0  0  0  0  0  0  0
  148.1940  173.9020  178.5380 C   0  0  0  0  0  0  0  0  0  0  0  0
  148.2840  175.0660  179.5500 C   0  0  2  0  0  0  0  0  0  0  0  0
  146.9330  175.7650  180.0070 C   0  0  2  0  0  0  0  0  0  0  0  0
  145.7070  174.7640  179.9980 C   0  0  2  0  0  0  0  0  0  0  0  0
  144.5240  175.3300  180.8390 C   0  0  0  0  0  0  0  0  0  0  0  0
  144.2930  176.8650  180.6220 C   0  0  0  0  0  0  0  0  0  0  0  0
  144.9070  177.4460  179.3000 C   0  0  1  0  0  0  0  0  0  0  0  0
  144.8560  179.0140  179.2650 C   0  0  1  0  0  0  0  0  0  0  0  0
  145.3620  179.4700  178.0020 O   0  0  0  0  0  0  0  0  0  0  0  0
  146.4480  178.8490  177.3620 C   0  0  0  0  0  0  0  0  0  0  0  0
  146.8440  179.2790  176.2480 O   0  0  0  0  0  0  0  0  0  0  0  0
  147.1450  177.6830  178.0070 C   0  0  1  0  0  0  0  0  0  0  0  0
  147.3860  178.0460  179.3340 O   0  0  0  0  0  0  0  0  0  0  0  0
  146.4350  177.0050  179.1520 C   0  0  2  0  0  0  0  0  0  0  0  0
  146.0820  173.2090  179.9720 C   0  0  1  0  0  0  0  0  0  0  0  0
  145.1680  171.2120  180.3160 H   0  0  0  0  0  0  0  0  0  0  0  0
  143.4350  171.3250  178.5200 H   0  0  0  0  0  0  0  0  0  0  0  0
  144.1370  172.8730  177.9850 H   0  0  0  0  0  0  0  0  0  0  0  0
  145.3600  170.0610  178.0950 H   0  0  0  0  0  0  0  0  0  0  0  0
  146.2930  173.5780  177.8140 H   0  0  0  0  0  0  0  0  0  0  0  0
  149.0690  173.2400  178.7080 H   0  0  0  0  0  0  0  0  0  0  0  0
  148.3150  174.3210  177.5110 H   0  0  0  0  0  0  0  0  0  0  0  0
  148.7210  174.6000  180.4610 H   0  0  0  0  0  0  0  0  0  0  0  0
  145.2550  174.8610  179.0010 H   0  0  0  0  0  0  0  0  0  0  0  0
  143.5730  174.8590  180.5220 H   0  0  0  0  0  0  0  0  0  0  0  0
  144.6650  175.1060  181.9170 H   0  0  0  0  0  0  0  0  0  0  0  0
  143.1950  177.0510  180.6250 H   0  0  0  0  0  0  0  0  0  0  0  0
  144.6600  177.4250  181.5030 H   0  0  0  0  0  0  0  0  0  0  0  0
  145.5120  179.4120  180.0710 H   0  0  0  0  0  0  0  0  0  0  0  0
  148.0310  177.2360  177.5200 H   0  0  0  0  0  0  0  0  0  0  0  0
  143.4890  179.6090  179.5120 C   0  0  0  0  0  0  0  0  0  0  0  0
  142.9010  179.8850  180.7300 C   0  0  0  0  0  0  0  0  0  0  0  0
  141.6490  180.3840  180.4350 C   0  0  0  0  0  0  0  0  0  0  0  0
  141.4770  180.4100  179.1320 O   0  0  0  0  0  0  0  0  0  0  0  0
  142.5580  179.9480  178.5490 C   0  0  0  0  0  0  0  0  0  0  0  0
  143.3270  179.7360  181.7140 H   0  0  0  0  0  0  0  0  0  0  0  0
  140.9080  180.7040  181.1540 H   0  0  0  0  0  0  0  0  0  0  0  0
  142.6820  179.8500  177.4790 H   0  0  0  0  0  0  0  0  0  0  0  0
  147.7220  171.6580  176.6340 C   0  0  0  0  0  0  0  0  0  0  0  0
  147.6200  172.6490  176.1400 H   0  0  0  0  0  0  0  0  0  0  0  0
  148.8040  171.4580  176.7820 H   0  0  0  0  0  0  0  0  0  0  0  0
  147.3530  170.8730  175.9380 H   0  0  0  0  0  0  0  0  0  0  0  0
  147.6960  170.6270  178.8920 C   0  0  0  0  0  0  0  0  0  0  0  0
  148.2700  169.8890  178.2950 H   0  0  0  0  0  0  0  0  0  0  0  0
  148.3960  171.1300  179.5830 H   0  0  0  0  0  0  0  0  0  0  0  0
  146.9770  170.0650  179.5240 H   0  0  0  0  0  0  0  0  0  0  0  0
  147.2380  176.3170  181.4570 C   0  0  0  0  0  0  0  0  0  0  0  0
  146.3460  176.7160  181.9750 H   0  0  0  0  0  0  0  0  0  0  0  0
  147.9230  177.1950  181.4350 H   0  0  0  0  0  0  0  0  0  0  0  0
  147.6830  175.5720  182.1360 H   0  0  0  0  0  0  0  0  0  0  0  0
  144.0740  176.9000  178.0860 C   0  0  0  0  0  0  0  0  0  0  0  0
  143.7250  177.7200  177.4240 H   0  0  0  0  0  0  0  0  0  0  0  0
  144.6370  176.1820  177.4550 H   0  0  0  0  0  0  0  0  0  0  0  0
  143.1760  176.3410  178.4090 H   0  0  0  0  0  0  0  0  0  0  0  0
  146.9470  172.8080  181.2160 C   0  0  0  0  0  0  0  0  0  0  0  0
  147.0860  173.6280  181.9520 H   0  0  0  0  0  0  0  0  0  0  0  0
  146.4940  171.9840  181.8020 H   0  0  0  0  0  0  0  0  0  0  0  0
  147.9760  172.5380  180.9420 H   0  0  0  0  0  0  0  0  0  0  0  0
  143.7830  172.6180  180.7790 O   0  0  0  0  0  0  0  0  0  0  0  0
  143.2490  171.8440  181.8160 C   0  0  0  0  0  0  0  0  0  0  0  0
  143.4960  170.6100  181.8990 O   0  0  0  0  0  0  0  0  0  0  0  0
  142.4310  172.5050  182.8720 C   0  0  0  0  0  0  0  0  0  0  0  0
  142.0720  171.7550  183.6100 H   0  0  0  0  0  0  0  0  0  0  0  0
  143.0470  173.2670  183.3930 H   0  0  0  0  0  0  0  0  0  0  0  0
  141.5530  173.0020  182.4080 H   0  0  0  0  0  0  0  0  0  0  0  0
  145.0870  171.1530  176.3440 O   0  0  0  0  0  0  0  0  0  0  0  0
  144.8450  170.0190  175.5590 C   0  0  0  0  0  0  0  0  0  0  0  0
  145.4460  169.8470  174.4650 O   0  0  0  0  0  0  0  0  0  0  0  0
  143.8730  168.9940  176.0280 C   0  0  0  0  0  0  0  0  0  0  0  0
  142.8480  169.4200  176.0460 H   0  0  0  0  0  0  0  0  0  0  0  0
  144.1440  168.6570  177.0500 H   0  0  0  0  0  0  0  0  0  0  0  0
  143.8850  168.1240  175.3390 H   0  0  0  0  0  0  0  0  0  0  0  0
  149.2470  176.0280  179.1120 O   0  0  0  0  0  0  0  0  0  0  0  0
  150.4800  176.2480  179.7360 C   0  0  0  0  0  0  0  0  0  0  0  0
  151.4120  175.4030  179.6460 O   0  0  0  0  0  0  0  0  0  0  0  0
  150.6740  177.4730  180.5620 C   0  0  0  0  0  0  0  0  0  0  0  0
  151.6510  177.9390  180.3170 H   0  0  0  0  0  0  0  0  0  0  0  0
  150.6560  177.2100  181.6390 H   0  0  0  0  0  0  0  0  0  0  0  0
  149.8610  178.1990  180.3560 H   0  0  0  0  0  0  0  0  0  0  0  0
  1 20  1  0  0  0  0
  1 21  1  1  0  0  0
  1 64  1  0  0  0  0
  2 22  1  0  0  0  0
  2  1  1  0  0  0  0
  3  4  1  0  0  0  0
  3 24  1  1  0  0  0
  3  2  1  0  0  0  0
  4  5  1  0  0  0  0
  4 48  1  0  0  0  0
  5 25  1  6  0  0  0
  5 20  1  0  0  0  0
  6  5  1  0  0  0  0
  6 26  1  0  0  0  0
  6  7  1  0  0  0  0
  7  8  1  0  0  0  0
  7 28  1  1  0  0  0
  8 52  1  1  0  0  0
  9 29  1  6  0  0  0
  9  8  1  0  0  0  0
  9 10  1  0  0  0  0
 10 31  1  0  0  0  0
 11 32  1  0  0  0  0
 11 10  1  0  0  0  0
 11 33  1  0  0  0  0
 12 56  1  6  0  0  0
 12 11  1  0  0  0  0
 13 12  1  0  0  0  0
 13 36  1  0  0  0  0
 13 34  1  1  0  0  0
 14 13  1  0  0  0  0
 15 14  1  0  0  0  0
 15 17  1  0  0  0  0
 16 15  2  0  0  0  0
 17 35  1  6  0  0  0
 17 19  1  0  0  0  0
 17 18  1  0  0  0  0
 19 12  1  0  0  0  0
 19 18  1  1  0  0  0
 19  8  1  0  0  0  0
 20  9  1  0  0  0  0
 20 60  1  1  0  0  0
 23  2  1  0  0  0  0
 27  6  1  0  0  0  0
 30 10  1  0  0  0  0
 36 37  1  0  0  0  0
 37 41  1  0  0  0  0
 38 37  2  0  0  0  0
 38 42  1  0  0  0  0
 39 38  1  0  0  0  0
 40 39  1  0  0  0  0
 40 36  2  0  0  0  0
 43 40  1  0  0  0  0
 44 46  1  0  0  0  0
 44  4  1  0  0  0  0
 45 44  1  0  0  0  0
 47 44  1  0  0  0  0
 48 51  1  0  0  0  0
 48 50  1  0  0  0  0
 49 48  1  0  0  0  0
 52 53  1  0  0  0  0
 52 55  1  0  0  0  0
 54 52  1  0  0  0  0
 56 59  1  0  0  0  0
 57 56  1  0  0  0  0
 58 56  1  0  0  0  0
 60 62  1  0  0  0  0
 60 61  1  0  0  0  0
 63 60  1  0  0  0  0
 64 65  1  0  0  0  0
 65 66  2  0  0  0  0
 65 67  1  0  0  0  0
 67 69  1  0  0  0  0
 67 68  1  0  0  0  0
 70 67  1  0  0  0  0
 71  3  1  0  0  0  0
 72 74  1  0  0  0  0
 72 71  1  0  0  0  0
 73 72  2  0  0  0  0
 74 75  1  0  0  0  0
 74 76  1  0  0  0  0
 77 74  1  0  0  0  0
 78  7  1  0  0  0  0
 78 79  1  0  0  0  0
 79 81  1  0  0  0  0
 80 79  2  0  0  0  0
 81 83  1  0  0  0  0
 82 81  1  0  0  0  0
 84 81  1  0  0  0  0
M  END
>  <MODEL>
8

>  <REMARK>
 VINA RESULT:      -6.6      2.875      5.457
  Name = KHIVORIN
  15 active torsions:
  status: ('A' for Active; 'I' for Inactive)
    1  A    between atoms: C_1  and  C_2
    2  A    between atoms: C_2  and  O_4
    3  A    between atoms: O_4  and  C_5
    4  A    between atoms: C_7  and  O_8
    5  A    between atoms: O_8  and  C_9
    6  A    between atoms: C_9  and  C_10
    7  A    between atoms: C_12  and  C_13
    8  A    between atoms: C_12  and  C_14
    9  A    between atoms: C_17  and  O_18
   10  A    between atoms: O_18  and  C_19
   11  A    between atoms: C_19  and  C_20
   12  A    between atoms: C_22  and  C_23
   13  A    between atoms: C_27  and  C_28
   14  A    between atoms: C_29  and  C_30
   15  A    between atoms: C_41  and  C_42
                            x       y       z     vdW  Elec       q    Type
                         _______ _______ _______ _____ _____    ______ ____

>  <TORSDO>
F 15

>  <vina_affinity>
-6.6

>  <vina_rmsd_lb>
2.875

>  <vina_rmsd_ub>
5.457

$$$$
KHIVORIN
 OpenBabel09062217423D

 84 89  0  0  1  0  0  0  0  0999 V2000
  145.7440  170.9340  176.0520 C   0  0  1  0  0  0  0  0  0  0  0  0
  146.3470  172.0520  175.1930 C   0  0  0  0  0  0  0  0  0  0  0  0
  147.4200  171.4720  174.2350 C   0  0  2  0  0  0  0  0  0  0  0  0
  148.3780  170.3940  174.9150 C   0  0  0  0  0  0  0  0  0  0  0  0
  148.2550  170.5150  176.4800 C   0  0  2  0  0  0  0  0  0  0  0  0
  149.3810  169.8660  177.3270 C   0  0  0  0  0  0  0  0  0  0  0  0
  149.0140  169.5630  178.7960 C   0  0  2  0  0  0  0  0  0  0  0  0
  147.9490  170.5010  179.5090 C   0  0  2  0  0  0  0  0  0  0  0  0
  146.8870  171.0850  178.4910 C   0  0  2  0  0  0  0  0  0  0  0  0
  145.6360  171.6270  179.2460 C   0  0  0  0  0  0  0  0  0  0  0  0
  145.9980  172.4160  180.5500 C   0  0  0  0  0  0  0  0  0  0  0  0
  147.4740  172.9460  180.6150 C   0  0  1  0  0  0  0  0  0  0  0  0
  147.8370  173.5050  182.0360 C   0  0  1  0  0  0  0  0  0  0  0  0
  149.1690  174.0390  182.0010 O   0  0  0  0  0  0  0  0  0  0  0  0
  150.2010  173.4310  181.2660 C   0  0  0  0  0  0  0  0  0  0  0  0
  151.3480  173.9480  181.2560 O   0  0  0  0  0  0  0  0  0  0  0  0
  149.9440  172.1610  180.5040 C   0  0  1  0  0  0  0  0  0  0  0  0
  149.2690  171.3010  181.3740 O   0  0  0  0  0  0  0  0  0  0  0  0
  148.5050  171.7760  180.2740 C   0  0  2  0  0  0  0  0  0  0  0  0
  146.7880  170.3290  177.0850 C   0  0  1  0  0  0  0  0  0  0  0  0
  145.4530  170.1560  175.3160 H   0  0  0  0  0  0  0  0  0  0  0  0
  145.5590  172.5410  174.5810 H   0  0  0  0  0  0  0  0  0  0  0  0
  146.7770  172.8420  175.8470 H   0  0  0  0  0  0  0  0  0  0  0  0
  146.8560  170.9830  173.4080 H   0  0  0  0  0  0  0  0  0  0  0  0
  148.5220  171.5900  176.5960 H   0  0  0  0  0  0  0  0  0  0  0  0
  149.6960  168.9110  176.8550 H   0  0  0  0  0  0  0  0  0  0  0  0
  150.2780  170.5290  177.3190 H   0  0  0  0  0  0  0  0  0  0  0  0
  148.5640  168.5470  178.7590 H   0  0  0  0  0  0  0  0  0  0  0  0
  147.3000  172.0460  178.1550 H   0  0  0  0  0  0  0  0  0  0  0  0
  145.1020  172.3640  178.6160 H   0  0  0  0  0  0  0  0  0  0  0  0
  144.9270  170.8040  179.4730 H   0  0  0  0  0  0  0  0  0  0  0  0
  145.2980  173.2780  180.6360 H   0  0  0  0  0  0  0  0  0  0  0  0
  145.7670  171.7960  181.4380 H   0  0  0  0  0  0  0  0  0  0  0  0
  147.8140  172.6670  182.7670 H   0  0  0  0  0  0  0  0  0  0  0  0
  150.7770  171.6610  179.9730 H   0  0  0  0  0  0  0  0  0  0  0  0
  146.8840  174.5480  182.5700 C   0  0  0  0  0  0  0  0  0  0  0  0
  147.0110  175.9210  182.4890 C   0  0  0  0  0  0  0  0  0  0  0  0
  145.9120  176.4350  183.1480 C   0  0  0  0  0  0  0  0  0  0  0  0
  145.1670  175.4530  183.6030 O   0  0  0  0  0  0  0  0  0  0  0  0
  145.7220  174.3100  183.2780 C   0  0  0  0  0  0  0  0  0  0  0  0
  147.8070  176.4810  182.0160 H   0  0  0  0  0  0  0  0  0  0  0  0
  145.6870  177.4840  183.2830 H   0  0  0  0  0  0  0  0  0  0  0  0
  145.3220  173.3390  183.5380 H   0  0  0  0  0  0  0  0  0  0  0  0
  149.8520  170.6410  174.4870 C   0  0  0  0  0  0  0  0  0  0  0  0
  150.3880  169.6800  174.3270 H   0  0  0  0  0  0  0  0  0  0  0  0
  149.9150  171.2280  173.5460 H   0  0  0  0  0  0  0  0  0  0  0  0
  150.3970  171.2280  175.2570 H   0  0  0  0  0  0  0  0  0  0  0  0
  148.0150  168.9730  174.4220 C   0  0  0  0  0  0  0  0  0  0  0  0
  148.4580  168.7690  173.4260 H   0  0  0  0  0  0  0  0  0  0  0  0
  148.3480  168.1810  175.1160 H   0  0  0  0  0  0  0  0  0  0  0  0
  146.9130  168.8700  174.3300 H   0  0  0  0  0  0  0  0  0  0  0  0
  147.2770  169.5820  180.6060 C   0  0  0  0  0  0  0  0  0  0  0  0
  146.3920  170.0410  181.0860 H   0  0  0  0  0  0  0  0  0  0  0  0
  147.9550  169.3950  181.4690 H   0  0  0  0  0  0  0  0  0  0  0  0
  146.9500  168.5990  180.2290 H   0  0  0  0  0  0  0  0  0  0  0  0
  147.6250  174.1130  179.5750 C   0  0  0  0  0  0  0  0  0  0  0  0
  148.4610  173.9280  178.8680 H   0  0  0  0  0  0  0  0  0  0  0  0
  146.7110  174.2810  178.9690 H   0  0  0  0  0  0  0  0  0  0  0  0
  147.8210  175.0880  180.0590 H   0  0  0  0  0  0  0  0  0  0  0  0
  146.4100  168.8200  177.2710 C   0  0  0  0  0  0  0  0  0  0  0  0
  145.4510  168.5330  176.7890 H   0  0  0  0  0  0  0  0  0  0  0  0
  147.1590  168.1350  176.8270 H   0  0  0  0  0  0  0  0  0  0  0  0
  146.2510  168.5540  178.3250 H   0  0  0  0  0  0  0  0  0  0  0  0
  144.5290  171.3400  176.6770 O   0  0  0  0  0  0  0  0  0  0  0  0
  143.3880  170.5380  176.7870 C   0  0  0  0  0  0  0  0  0  0  0  0
  143.3040  169.4390  176.1730 O   0  0  0  0  0  0  0  0  0  0  0  0
  142.2850  170.9600  177.6970 C   0  0  0  0  0  0  0  0  0  0  0  0
  142.5910  170.8390  178.7590 H   0  0  0  0  0  0  0  0  0  0  0  0
  142.0380  172.0260  177.5060 H   0  0  0  0  0  0  0  0  0  0  0  0
  141.3860  170.3380  177.5070 H   0  0  0  0  0  0  0  0  0  0  0  0
  148.1520  172.5840  173.7040 O   0  0  0  0  0  0  0  0  0  0  0  0
  147.8660  173.2020  172.4800 C   0  0  0  0  0  0  0  0  0  0  0  0
  148.4360  174.2750  172.1460 O   0  0  0  0  0  0  0  0  0  0  0  0
  146.8840  172.5770  171.5510 C   0  0  0  0  0  0  0  0  0  0  0  0
  146.1020  173.3130  171.2710 H   0  0  0  0  0  0  0  0  0  0  0  0
  146.4040  171.7050  172.0420 H   0  0  0  0  0  0  0  0  0  0  0  0
  147.4030  172.2400  170.6300 H   0  0  0  0  0  0  0  0  0  0  0  0
  150.2000  169.4280  179.5830 O   0  0  0  0  0  0  0  0  0  0  0  0
  150.6360  168.2260  180.1520 C   0  0  0  0  0  0  0  0  0  0  0  0
  150.2900  167.8980  181.3190 O   0  0  0  0  0  0  0  0  0  0  0  0
  151.5650  167.3490  179.3850 C   0  0  0  0  0  0  0  0  0  0  0  0
  151.9480  166.5420  180.0440 H   0  0  0  0  0  0  0  0  0  0  0  0
  152.4210  167.9440  179.0060 H   0  0  0  0  0  0  0  0  0  0  0  0
  151.0320  166.8970  178.5240 H   0  0  0  0  0  0  0  0  0  0  0  0
  1 21  1  6  0  0  0
  1 64  1  0  0  0  0
  1 20  1  0  0  0  0
  2 23  1  0  0  0  0
  2  1  1  0  0  0  0
  3 24  1  6  0  0  0
  3  4  1  0  0  0  0
  3  2  1  0  0  0  0
  4  5  1  0  0  0  0
  5 25  1  1  0  0  0
  5 20  1  0  0  0  0
  5  6  1  0  0  0  0
  6  7  1  0  0  0  0
  7 28  1  6  0  0  0
  7  8  1  0  0  0  0
  7 78  1  0  0  0  0
  8 19  1  0  0  0  0
  8 52  1  1  0  0  0
  9 29  1  6  0  0  0
  9 10  1  0  0  0  0
  9  8  1  0  0  0  0
 10 31  1  0  0  0  0
 10 11  1  0  0  0  0
 11 12  1  0  0  0  0
 11 32  1  0  0  0  0
 11 33  1  0  0  0  0
 12 56  1  6  0  0  0
 12 13  1  0  0  0  0
 13 36  1  0  0  0  0
 13 34  1  1  0  0  0
 14 13  1  0  0  0  0
 15 14  1  0  0  0  0
 16 15  2  0  0  0  0
 17 35  1  6  0  0  0
 17 15  1  0  0  0  0
 17 18  1  0  0  0  0
 19 17  1  0  0  0  0
 19 12  1  0  0  0  0
 19 18  1  1  0  0  0
 20 60  1  1  0  0  0
 20  9  1  0  0  0  0
 22  2  1  0  0  0  0
 26  6  1  0  0  0  0
 27  6  1  0  0  0  0
 30 10  1  0  0  0  0
 36 40  2  0  0  0  0
 37 36  1  0  0  0  0
 37 38  2  0  0  0  0
 38 42  1  0  0  0  0
 38 39  1  0  0  0  0
 40 43  1  0  0  0  0
 40 39  1  0  0  0  0
 41 37  1  0  0  0  0
 44  4  1  0  0  0  0
 44 47  1  0  0  0  0
 45 44  1  0  0  0  0
 46 44  1  0  0  0  0
 48  4  1  0  0  0  0
 48 50  1  0  0  0  0
 49 48  1  0  0  0  0
 51 48  1  0  0  0  0
 52 53  1  0  0  0  0
 52 54  1  0  0  0  0
 55 52  1  0  0  0  0
 56 59  1  0  0  0  0
 57 56  1  0  0  0  0
 58 56  1  0  0  0  0
 60 63  1  0  0  0  0
 61 60  1  0  0  0  0
 62 60  1  0  0  0  0
 64 65  1  0  0  0  0
 65 67  1  0  0  0  0
 66 65  2  0  0  0  0
 67 68  1  0  0  0  0
 69 67  1  0  0  0  0
 70 67  1  0  0  0  0
 71  3  1  0  0  0  0
 72 71  1  0  0  0  0
 73 72  2  0  0  0  0
 74 76  1  0  0  0  0
 74 72  1  0  0  0  0
 75 74  1  0  0  0  0
 77 74  1  0  0  0  0
 78 79  1  0  0  0  0
 79 80  2  0  0  0  0
 81 82  1  0  0  0  0
 81 79  1  0  0  0  0
 83 81  1  0  0  0  0
 84 81  1  0  0  0  0
M  END
>  <MODEL>
9

>  <REMARK>
 VINA RESULT:      -6.4      2.697      6.029
  Name = KHIVORIN
  15 active torsions:
  status: ('A' for Active; 'I' for Inactive)
    1  A    between atoms: C_1  and  C_2
    2  A    between atoms: C_2  and  O_4
    3  A    between atoms: O_4  and  C_5
    4  A    between atoms: C_7  and  O_8
    5  A    between atoms: O_8  and  C_9
    6  A    between atoms: C_9  and  C_10
    7  A    between atoms: C_12  and  C_13
    8  A    between atoms: C_12  and  C_14
    9  A    between atoms: C_17  and  O_18
   10  A    between atoms: O_18  and  C_19
   11  A    between atoms: C_19  and  C_20
   12  A    between atoms: C_22  and  C_23
   13  A    between atoms: C_27  and  C_28
   14  A    between atoms: C_29  and  C_30
   15  A    between atoms: C_41  and  C_42
                            x       y       z     vdW  Elec       q    Type
                         _______ _______ _______ _____ _____    ______ ____

>  <TORSDO>
F 15

>  <vina_affinity>
-6.4

>  <vina_rmsd_lb>
2.697

>  <vina_rmsd_ub>
6.029

$$$$
3-Deacetylkhivorin
 OpenBabel09062217423D

 79 84  0  0  1  0  0  0  0  0999 V2000
  146.8480  170.5060  174.7970 C   0  0  1  0  0  0  0  0  0  0  0  0
  146.8830  170.7400  173.2520 C   0  0  0  0  0  0  0  0  0  0  0  0
  148.0160  171.6400  172.7120 C   0  0  2  0  0  0  0  0  0  0  0  0
  148.1090  173.0360  173.4480 C   0  0  0  0  0  0  0  0  0  0  0  0
  147.5700  172.9180  174.9310 C   0  0  2  0  0  0  0  0  0  0  0  0
  147.7710  174.1570  175.8730 C   0  0  0  0  0  0  0  0  0  0  0  0
  148.6430  173.8550  177.0920 C   0  0  2  0  0  0  0  0  0  0  0  0
  148.0570  172.6990  178.0040 C   0  0  2  0  0  0  0  0  0  0  0  0
  147.2740  171.6570  177.1150 C   0  0  2  0  0  0  0  0  0  0  0  0
  146.9610  170.3490  177.9050 C   0  0  0  0  0  0  0  0  0  0  0  0
  146.4420  170.6010  179.3510 C   0  0  0  0  0  0  0  0  0  0  0  0
  145.9340  172.0500  179.6230 C   0  0  1  0  0  0  0  0  0  0  0  0
  145.6740  172.2740  181.1560 C   0  0  1  0  0  0  0  0  0  0  0  0
  145.1450  173.5900  181.3540 O   0  0  0  0  0  0  0  0  0  0  0  0
  145.6040  174.6910  180.6210 C   0  0  0  0  0  0  0  0  0  0  0  0
  145.0980  175.8270  180.8240 O   0  0  0  0  0  0  0  0  0  0  0  0
  146.6830  174.5270  179.5880 C   0  0  1  0  0  0  0  0  0  0  0  0
  147.7140  173.7820  180.1760 O   0  0  0  0  0  0  0  0  0  0  0  0
  147.0090  173.1220  179.1340 C   0  0  2  0  0  0  0  0  0  0  0  0
  147.7590  171.5030  175.6160 C   0  0  1  0  0  0  0  0  0  0  0  0
  147.1840  169.4670  175.0160 H   0  0  0  0  0  0  0  0  0  0  0  0
  146.9320  169.7530  172.7440 H   0  0  0  0  0  0  0  0  0  0  0  0
  145.9220  171.1980  172.9310 H   0  0  0  0  0  0  0  0  0  0  0  0
  148.9690  171.0800  172.8280 H   0  0  0  0  0  0  0  0  0  0  0  0
  146.4640  172.9670  174.7900 H   0  0  0  0  0  0  0  0  0  0  0  0
  146.7870  174.5130  176.2540 H   0  0  0  0  0  0  0  0  0  0  0  0
  148.1970  175.0220  175.3300 H   0  0  0  0  0  0  0  0  0  0  0  0
  149.6100  173.5480  176.6510 H   0  0  0  0  0  0  0  0  0  0  0  0
  146.2860  172.1240  176.9610 H   0  0  0  0  0  0  0  0  0  0  0  0
  147.8530  169.6910  177.9590 H   0  0  0  0  0  0  0  0  0  0  0  0
  146.1840  169.7590  177.3710 H   0  0  0  0  0  0  0  0  0  0  0  0
  147.2340  170.3400  180.0820 H   0  0  0  0  0  0  0  0  0  0  0  0
  145.6200  169.8750  179.5490 H   0  0  0  0  0  0  0  0  0  0  0  0
  146.6450  172.2060  181.6950 H   0  0  0  0  0  0  0  0  0  0  0  0
  147.0570  175.4340  179.0860 H   0  0  0  0  0  0  0  0  0  0  0  0
  144.7640  171.2570  181.8050 C   0  0  0  0  0  0  0  0  0  0  0  0
  145.1310  170.0090  182.2660 C   0  0  0  0  0  0  0  0  0  0  0  0
  143.9840  169.4460  182.7820 C   0  0  0  0  0  0  0  0  0  0  0  0
  142.9810  170.2870  182.6560 O   0  0  0  0  0  0  0  0  0  0  0  0
  143.4130  171.3850  182.0790 C   0  0  0  0  0  0  0  0  0  0  0  0
  146.1170  169.5640  182.2320 H   0  0  0  0  0  0  0  0  0  0  0  0
  143.9040  168.4630  183.2270 H   0  0  0  0  0  0  0  0  0  0  0  0
  142.7920  172.2440  181.8610 H   0  0  0  0  0  0  0  0  0  0  0  0
  147.2400  174.0860  172.6940 C   0  0  0  0  0  0  0  0  0  0  0  0
  146.3940  174.4380  173.3200 H   0  0  0  0  0  0  0  0  0  0  0  0
  147.8350  174.9860  172.4160 H   0  0  0  0  0  0  0  0  0  0  0  0
  146.8200  173.6530  171.7610 H   0  0  0  0  0  0  0  0  0  0  0  0
  149.5780  173.5280  173.3870 C   0  0  0  0  0  0  0  0  0  0  0  0
  150.1150  173.1430  172.4940 H   0  0  0  0  0  0  0  0  0  0  0  0
  149.6530  174.6310  173.3900 H   0  0  0  0  0  0  0  0  0  0  0  0
  150.1420  173.1690  174.2770 H   0  0  0  0  0  0  0  0  0  0  0  0
  149.3010  172.0530  178.7050 C   0  0  0  0  0  0  0  0  0  0  0  0
  149.1660  171.8600  179.7810 H   0  0  0  0  0  0  0  0  0  0  0  0
  150.1830  172.7170  178.6290 H   0  0  0  0  0  0  0  0  0  0  0  0
  149.6110  171.0980  178.2450 H   0  0  0  0  0  0  0  0  0  0  0  0
  144.5830  172.2550  178.8510 C   0  0  0  0  0  0  0  0  0  0  0  0
  144.3410  171.3870  178.2030 H   0  0  0  0  0  0  0  0  0  0  0  0
  143.7230  172.4150  179.5260 H   0  0  0  0  0  0  0  0  0  0  0  0
  144.5930  173.1510  178.2030 H   0  0  0  0  0  0  0  0  0  0  0  0
  149.2130  170.9340  175.6080 C   0  0  0  0  0  0  0  0  0  0  0  0
  149.8890  171.4480  174.9080 H   0  0  0  0  0  0  0  0  0  0  0  0
  149.6990  170.9330  176.5930 H   0  0  0  0  0  0  0  0  0  0  0  0
  149.2300  169.8910  175.2400 H   0  0  0  0  0  0  0  0  0  0  0  0
  147.8110  171.8050  171.3250 O   0  0  0  0  0  0  0  0  0  0  0  0
  147.8320  172.7810  171.1330 H   0  0  0  0  0  0  0  0  0  0  0  0
  145.4830  170.6400  175.2100 O   0  0  0  0  0  0  0  0  0  0  0  0
  144.6110  169.5610  175.3940 C   0  0  0  0  0  0  0  0  0  0  0  0
  144.7300  168.5050  174.7090 O   0  0  0  0  0  0  0  0  0  0  0  0
  143.5410  169.6560  176.4290 C   0  0  0  0  0  0  0  0  0  0  0  0
  143.6230  168.8140  177.1500 H   0  0  0  0  0  0  0  0  0  0  0  0
  143.6400  170.6160  176.9820 H   0  0  0  0  0  0  0  0  0  0  0  0
  142.5480  169.6190  175.9340 H   0  0  0  0  0  0  0  0  0  0  0  0
  148.8990  175.0640  177.8090 O   0  0  0  0  0  0  0  0  0  0  0  0
  148.9470  176.3390  177.2340 C   0  0  0  0  0  0  0  0  0  0  0  0
  149.8620  176.6510  176.4240 O   0  0  0  0  0  0  0  0  0  0  0  0
  147.8660  177.3200  177.5390 C   0  0  0  0  0  0  0  0  0  0  0  0
  147.1410  177.3470  176.7010 H   0  0  0  0  0  0  0  0  0  0  0  0
  147.3330  177.0290  178.4680 H   0  0  0  0  0  0  0  0  0  0  0  0
  148.3090  178.3290  177.6710 H   0  0  0  0  0  0  0  0  0  0  0  0
  1 21  1  1  0  0  0
  1 66  1  0  0  0  0
  1 20  1  0  0  0  0
  2  1  1  0  0  0  0
  3 24  1  1  0  0  0
  3  2  1  0  0  0  0
  3  4  1  0  0  0  0
  4  5  1  0  0  0  0
  5 25  1  6  0  0  0
  5 20  1  0  0  0  0
  5  6  1  0  0  0  0
  6 26  1  0  0  0  0
  6  7  1  0  0  0  0
  7 28  1  6  0  0  0
  7 73  1  0  0  0  0
  7  8  1  0  0  0  0
  8 52  1  1  0  0  0
  8 19  1  0  0  0  0
  9 29  1  6  0  0  0
  9 10  1  0  0  0  0
  9  8  1  0  0  0  0
 10 30  1  0  0  0  0
 10 11  1  0  0  0  0
 11 33  1  0  0  0  0
 11 12  1  0  0  0  0
 11 32  1  0  0  0  0
 12 56  1  6  0  0  0
 12 13  1  0  0  0  0
 13 14  1  0  0  0  0
 13 34  1  1  0  0  0
 13 36  1  0  0  0  0
 15 16  2  0  0  0  0
 15 14  1  0  0  0  0
 17 35  1  6  0  0  0
 17 18  1  0  0  0  0
 17 15  1  0  0  0  0
 19 17  1  0  0  0  0
 19 12  1  0  0  0  0
 19 18  1  1  0  0  0
 20 60  1  6  0  0  0
 20  9  1  0  0  0  0
 22  2  1  0  0  0  0
 23  2  1  0  0  0  0
 27  6  1  0  0  0  0
 31 10  1  0  0  0  0
 36 40  2  0  0  0  0
 36 37  1  0  0  0  0
 37 38  2  0  0  0  0
 38 42  1  0  0  0  0
 39 38  1  0  0  0  0
 40 39  1  0  0  0  0
 41 37  1  0  0  0  0
 43 40  1  0  0  0  0
 44 45  1  0  0  0  0
 44  4  1  0  0  0  0
 46 44  1  0  0  0  0
 47 44  1  0  0  0  0
 48 50  1  0  0  0  0
 48  4  1  0  0  0  0
 48 51  1  0  0  0  0
 49 48  1  0  0  0  0
 52 53  1  0  0  0  0
 54 52  1  0  0  0  0
 55 52  1  0  0  0  0
 56 58  1  0  0  0  0
 57 56  1  0  0  0  0
 59 56  1  0  0  0  0
 60 62  1  0  0  0  0
 61 60  1  0  0  0  0
 63 60  1  0  0  0  0
 64  3  1  0  0  0  0
 65 64  1  0  0  0  0
 66 67  1  0  0  0  0
 67 69  1  0  0  0  0
 68 67  2  0  0  0  0
 69 71  1  0  0  0  0
 69 70  1  0  0  0  0
 72 69  1  0  0  0  0
 74 76  1  0  0  0  0
 74 73  1  0  0  0  0
 75 74  2  0  0  0  0
 76 79  1  0  0  0  0
 76 78  1  0  0  0  0
 77 76  1  0  0  0  0
M  END
>  <MODEL>
1

>  <REMARK>
 VINA RESULT:      -8.0      0.000      0.000
  Name = 3-Deacetylkhivorin
  13 active torsions:
  status: ('A' for Active; 'I' for Inactive)
    1  A    between atoms: C_1  and  C_2
    2  A    between atoms: C_2  and  O_4
    3  A    between atoms: O_4  and  C_5
    4  A    between atoms: C_7  and  O_8
    5  A    between atoms: C_9  and  C_10
    6  A    between atoms: C_9  and  C_11
    7  A    between atoms: C_14  and  O_15
    8  A    between atoms: O_15  and  C_16
    9  A    between atoms: C_16  and  C_17
   10  A    between atoms: C_19  and  C_20
   11  A    between atoms: C_24  and  C_25
   12  A    between atoms: C_26  and  C_27
   13  A    between atoms: C_38  and  C_39
                            x       y       z     vdW  Elec       q    Type
                         _______ _______ _______ _____ _____    ______ ____

>  <TORSDO>
F 13

>  <vina_affinity>
-8.0

>  <vina_rmsd_lb>
0.000

>  <vina_rmsd_ub>
0.000

$$$$
3-Deacetylkhivorin
 OpenBabel09062217423D

 79 84  0  0  1  0  0  0  0  0999 V2000
  145.7200  170.5930  177.7570 C   0  0  1  0  0  0  0  0  0  0  0  0
  145.0960  169.5400  176.7860 C   0  0  0  0  0  0  0  0  0  0  0  0
  145.9300  169.1650  175.5410 C   0  0  2  0  0  0  0  0  0  0  0  0
  146.4040  170.4210  174.7060 C   0  0  0  0  0  0  0  0  0  0  0  0
  146.5530  171.6860  175.6440 C   0  0  2  0  0  0  0  0  0  0  0  0
  147.2070  172.9720  175.0250 C   0  0  0  0  0  0  0  0  0  0  0  0
  148.5020  173.3880  175.7200 C   0  0  2  0  0  0  0  0  0  0  0  0
  148.3080  173.6940  177.2630 C   0  0  2  0  0  0  0  0  0  0  0  0
  147.1650  172.7800  177.8520 C   0  0  2  0  0  0  0  0  0  0  0  0
  147.1560  172.8060  179.4130 C   0  0  0  0  0  0  0  0  0  0  0  0
  147.3270  174.2310  180.0150 C   0  0  0  0  0  0  0  0  0  0  0  0
  147.0620  175.4010  179.0190 C   0  0  1  0  0  0  0  0  0  0  0  0
  147.5020  176.7750  179.6390 C   0  0  1  0  0  0  0  0  0  0  0  0
  147.1800  177.8270  178.7230 O   0  0  0  0  0  0  0  0  0  0  0  0
  147.3340  177.6780  177.3390 C   0  0  0  0  0  0  0  0  0  0  0  0
  147.0250  178.6300  176.5740 O   0  0  0  0  0  0  0  0  0  0  0  0
  147.8510  176.3910  176.7610 C   0  0  1  0  0  0  0  0  0  0  0  0
  148.9940  176.0360  177.4890 O   0  0  0  0  0  0  0  0  0  0  0  0
  147.8750  175.1780  177.6640 C   0  0  2  0  0  0  0  0  0  0  0  0
  146.9470  171.3800  177.1480 C   0  0  1  0  0  0  0  0  0  0  0  0
  146.0630  170.0770  178.6830 H   0  0  0  0  0  0  0  0  0  0  0  0
  144.8700  168.6160  177.3600 H   0  0  0  0  0  0  0  0  0  0  0  0
  144.1160  169.9170  176.4210 H   0  0  0  0  0  0  0  0  0  0  0  0
  146.8100  168.5830  175.8920 H   0  0  0  0  0  0  0  0  0  0  0  0
  145.5000  172.0390  175.7420 H   0  0  0  0  0  0  0  0  0  0  0  0
  146.5040  173.8320  175.0990 H   0  0  0  0  0  0  0  0  0  0  0  0
  147.4000  172.8540  173.9420 H   0  0  0  0  0  0  0  0  0  0  0  0
  149.1660  172.5150  175.5790 H   0  0  0  0  0  0  0  0  0  0  0  0
  146.2330  173.2980  177.5680 H   0  0  0  0  0  0  0  0  0  0  0  0
  147.9490  172.1490  179.8280 H   0  0  0  0  0  0  0  0  0  0  0  0
  146.1960  172.3970  179.7940 H   0  0  0  0  0  0  0  0  0  0  0  0
  148.3430  174.3330  180.4490 H   0  0  0  0  0  0  0  0  0  0  0  0
  146.6350  174.3180  180.8840 H   0  0  0  0  0  0  0  0  0  0  0  0
  148.6060  176.7650  179.7810 H   0  0  0  0  0  0  0  0  0  0  0  0
  148.0180  176.3460  175.6730 H   0  0  0  0  0  0  0  0  0  0  0  0
  146.9110  177.0830  180.9950 C   0  0  0  0  0  0  0  0  0  0  0  0
  147.5100  176.8600  182.2180 C   0  0  0  0  0  0  0  0  0  0  0  0
  146.6110  177.3000  183.1650 C   0  0  0  0  0  0  0  0  0  0  0  0
  145.5360  177.7690  182.5710 O   0  0  0  0  0  0  0  0  0  0  0  0
  145.6830  177.6580  181.2710 C   0  0  0  0  0  0  0  0  0  0  0  0
  148.4880  176.4290  182.3980 H   0  0  0  0  0  0  0  0  0  0  0  0
  146.7530  177.2720  184.2370 H   0  0  0  0  0  0  0  0  0  0  0  0
  144.9440  177.9760  180.5450 H   0  0  0  0  0  0  0  0  0  0  0  0
  145.3510  170.7490  173.6060 C   0  0  0  0  0  0  0  0  0  0  0  0
  144.7110  171.6070  173.9000 H   0  0  0  0  0  0  0  0  0  0  0  0
  145.8370  171.0220  172.6420 H   0  0  0  0  0  0  0  0  0  0  0  0
  144.6900  169.8760  173.4210 H   0  0  0  0  0  0  0  0  0  0  0  0
  147.7260  170.0600  173.9810 C   0  0  0  0  0  0  0  0  0  0  0  0
  148.4190  169.4830  174.6290 H   0  0  0  0  0  0  0  0  0  0  0  0
  147.5530  169.4830  173.0540 H   0  0  0  0  0  0  0  0  0  0  0  0
  148.2660  170.9860  173.6820 H   0  0  0  0  0  0  0  0  0  0  0  0
  149.6980  173.3920  177.9230 C   0  0  0  0  0  0  0  0  0  0  0  0
  149.6380  173.0180  178.9570 H   0  0  0  0  0  0  0  0  0  0  0  0
  150.3150  174.3100  177.9730 H   0  0  0  0  0  0  0  0  0  0  0  0
  150.3000  172.6630  177.3530 H   0  0  0  0  0  0  0  0  0  0  0  0
  145.5240  175.4570  178.7180 C   0  0  0  0  0  0  0  0  0  0  0  0
  144.9820  176.0920  179.4480 H   0  0  0  0  0  0  0  0  0  0  0  0
  145.2980  175.8470  177.7070 H   0  0  0  0  0  0  0  0  0  0  0  0
  145.0480  174.4600  178.7380 H   0  0  0  0  0  0  0  0  0  0  0  0
  148.2230  170.5030  177.3510 C   0  0  0  0  0  0  0  0  0  0  0  0
  149.1040  170.8650  176.8000 H   0  0  0  0  0  0  0  0  0  0  0  0
  148.5190  170.3810  178.4010 H   0  0  0  0  0  0  0  0  0  0  0  0
  148.0780  169.4880  176.9360 H   0  0  0  0  0  0  0  0  0  0  0  0
  145.1540  168.2890  174.7520 O   0  0  0  0  0  0  0  0  0  0  0  0
  145.0680  167.4330  175.2500 H   0  0  0  0  0  0  0  0  0  0  0  0
  144.6770  171.5100  178.1080 O   0  0  0  0  0  0  0  0  0  0  0  0
  143.4140  171.1200  178.5660 C   0  0  0  0  0  0  0  0  0  0  0  0
  143.2190  170.8470  179.7850 O   0  0  0  0  0  0  0  0  0  0  0  0
  142.2780  171.0500  177.6010 C   0  0  0  0  0  0  0  0  0  0  0  0
  141.5820  170.2290  177.8790 H   0  0  0  0  0  0  0  0  0  0  0  0
  141.7210  172.0130  177.6080 H   0  0  0  0  0  0  0  0  0  0  0  0
  142.6750  170.8640  176.5810 H   0  0  0  0  0  0  0  0  0  0  0  0
  149.1050  174.4680  175.0040 O   0  0  0  0  0  0  0  0  0  0  0  0
  149.3090  174.4920  173.6190 C   0  0  0  0  0  0  0  0  0  0  0  0
  150.2900  173.8980  173.0970 O   0  0  0  0  0  0  0  0  0  0  0  0
  148.3150  175.1810  172.7470 C   0  0  0  0  0  0  0  0  0  0  0  0
  148.8400  175.6850  171.9110 H   0  0  0  0  0  0  0  0  0  0  0  0
  147.5930  174.4470  172.3290 H   0  0  0  0  0  0  0  0  0  0  0  0
  147.7630  175.9390  173.3410 H   0  0  0  0  0  0  0  0  0  0  0  0
  1 66  1  0  0  0  0
  1 21  1  1  0  0  0
  2 22  1  0  0  0  0
  2  1  1  0  0  0  0
  3 24  1  1  0  0  0
  3  2  1  0  0  0  0
  4  3  1  0  0  0  0
  4  5  1  0  0  0  0
  5 25  1  1  0  0  0
  5 20  1  0  0  0  0
  6 26  1  0  0  0  0
  6  5  1  0  0  0  0
  6  7  1  0  0  0  0
  7 28  1  6  0  0  0
  7  8  1  0  0  0  0
  8 19  1  0  0  0  0
  8  9  1  0  0  0  0
  8 52  1  1  0  0  0
  9 29  1  6  0  0  0
  9 10  1  0  0  0  0
 10 31  1  0  0  0  0
 10 30  1  0  0  0  0
 10 11  1  0  0  0  0
 11 32  1  0  0  0  0
 11 33  1  0  0  0  0
 12 56  1  6  0  0  0
 12 13  1  0  0  0  0
 12 11  1  0  0  0  0
 13 34  1  1  0  0  0
 13 36  1  0  0  0  0
 14 13  1  0  0  0  0
 15 14  1  0  0  0  0
 16 15  2  0  0  0  0
 17 35  1  6  0  0  0
 17 15  1  0  0  0  0
 17 18  1  0  0  0  0
 17 19  1  0  0  0  0
 19 18  1  1  0  0  0
 19 12  1  0  0  0  0
 20 60  1  1  0  0  0
 20  1  1  0  0  0  0
 20  9  1  0  0  0  0
 23  2  1  0  0  0  0
 27  6  1  0  0  0  0
 36 40  2  0  0  0  0
 36 37  1  0  0  0  0
 37 41  1  0  0  0  0
 37 38  2  0  0  0  0
 38 42  1  0  0  0  0
 39 38  1  0  0  0  0
 40 39  1  0  0  0  0
 43 40  1  0  0  0  0
 44 45  1  0  0  0  0
 44  4  1  0  0  0  0
 46 44  1  0  0  0  0
 47 44  1  0  0  0  0
 48 49  1  0  0  0  0
 48  4  1  0  0  0  0
 50 48  1  0  0  0  0
 51 48  1  0  0  0  0
 52 54  1  0  0  0  0
 52 53  1  0  0  0  0
 55 52  1  0  0  0  0
 56 59  1  0  0  0  0
 56 57  1  0  0  0  0
 58 56  1  0  0  0  0
 60 62  1  0  0  0  0
 61 60  1  0  0  0  0
 63 60  1  0  0  0  0
 64 65  1  0  0  0  0
 64  3  1  0  0  0  0
 66 67  1  0  0  0  0
 67 68  2  0  0  0  0
 69 71  1  0  0  0  0
 69 70  1  0  0  0  0
 69 67  1  0  0  0  0
 72 69  1  0  0  0  0
 73  7  1  0  0  0  0
 74 73  1  0  0  0  0
 75 74  2  0  0  0  0
 76 79  1  0  0  0  0
 76 74  1  0  0  0  0
 77 76  1  0  0  0  0
 78 76  1  0  0  0  0
M  END
>  <MODEL>
2

>  <REMARK>
 VINA RESULT:      -7.5      2.144      4.327
  Name = 3-Deacetylkhivorin
  13 active torsions:
  status: ('A' for Active; 'I' for Inactive)
    1  A    between atoms: C_1  and  C_2
    2  A    between atoms: C_2  and  O_4
    3  A    between atoms: O_4  and  C_5
    4  A    between atoms: C_7  and  O_8
    5  A    between atoms: C_9  and  C_10
    6  A    between atoms: C_9  and  C_11
    7  A    between atoms: C_14  and  O_15
    8  A    between atoms: O_15  and  C_16
    9  A    between atoms: C_16  and  C_17
   10  A    between atoms: C_19  and  C_20
   11  A    between atoms: C_24  and  C_25
   12  A    between atoms: C_26  and  C_27
   13  A    between atoms: C_38  and  C_39
                            x       y       z     vdW  Elec       q    Type
                         _______ _______ _______ _____ _____    ______ ____

>  <TORSDO>
F 13

>  <vina_affinity>
-7.5

>  <vina_rmsd_lb>
2.144

>  <vina_rmsd_ub>
4.327

$$$$
3-Deacetylkhivorin
 OpenBabel09062217423D

 79 84  0  0  1  0  0  0  0  0999 V2000
  148.4740  173.7250  179.8310 C   0  0  1  0  0  0  0  0  0  0  0  0
  149.2210  175.0200  179.3780 C   0  0  0  0  0  0  0  0  0  0  0  0
  148.9300  175.5240  177.9470 C   0  0  2  0  0  0  0  0  0  0  0  0
  149.1140  174.4080  176.8430 C   0  0  0  0  0  0  0  0  0  0  0  0
  148.8420  172.9740  177.4530 C   0  0  2  0  0  0  0  0  0  0  0  0
  148.7830  171.7640  176.4560 C   0  0  0  0  0  0  0  0  0  0  0  0
  147.4280  171.0570  176.4410 C   0  0  2  0  0  0  0  0  0  0  0  0
  147.0130  170.4800  177.8580 C   0  0  2  0  0  0  0  0  0  0  0  0
  147.5940  171.3970  179.0030 C   0  0  2  0  0  0  0  0  0  0  0  0
  146.9530  171.0650  180.3860 C   0  0  0  0  0  0  0  0  0  0  0  0
  146.8350  169.5390  180.6700 C   0  0  0  0  0  0  0  0  0  0  0  0
  147.7230  168.6320  179.7640 C   0  0  1  0  0  0  0  0  0  0  0  0
  147.3490  167.1180  179.9500 C   0  0  1  0  0  0  0  0  0  0  0  0
  148.2300  166.3170  179.1540 O   0  0  0  0  0  0  0  0  0  0  0  0
  148.6450  166.7160  177.8770 C   0  0  0  0  0  0  0  0  0  0  0  0
  149.4310  165.9810  177.2220 O   0  0  0  0  0  0  0  0  0  0  0  0
  148.1710  168.0150  177.2900 C   0  0  1  0  0  0  0  0  0  0  0  0
  146.7820  168.0720  177.4670 O   0  0  0  0  0  0  0  0  0  0  0  0
  147.5270  169.0130  178.2270 C   0  0  2  0  0  0  0  0  0  0  0  0
  147.8020  172.9250  178.6460 C   0  0  1  0  0  0  0  0  0  0  0  0
  147.6770  174.0000  180.5600 H   0  0  0  0  0  0  0  0  0  0  0  0
  148.9950  175.8340  180.1000 H   0  0  0  0  0  0  0  0  0  0  0  0
  150.3180  174.8510  179.4460 H   0  0  0  0  0  0  0  0  0  0  0  0
  147.8880  175.9090  177.9350 H   0  0  0  0  0  0  0  0  0  0  0  0
  149.8050  172.7450  177.9680 H   0  0  0  0  0  0  0  0  0  0  0  0
  149.5470  171.0020  176.7310 H   0  0  0  0  0  0  0  0  0  0  0  0
  149.0430  172.0680  175.4240 H   0  0  0  0  0  0  0  0  0  0  0  0
  146.7240  171.8490  176.1250 H   0  0  0  0  0  0  0  0  0  0  0  0
  148.6430  171.0680  179.1050 H   0  0  0  0  0  0  0  0  0  0  0  0
  145.9450  171.5200  180.4790 H   0  0  0  0  0  0  0  0  0  0  0  0
  147.5600  171.5090  181.2030 H   0  0  0  0  0  0  0  0  0  0  0  0
  145.7750  169.2250  180.5870 H   0  0  0  0  0  0  0  0  0  0  0  0
  147.1000  169.3700  181.7380 H   0  0  0  0  0  0  0  0  0  0  0  0
  146.3110  166.9590  179.5820 H   0  0  0  0  0  0  0  0  0  0  0  0
  148.4710  168.2530  176.2570 H   0  0  0  0  0  0  0  0  0  0  0  0
  147.3660  166.6260  181.3780 C   0  0  0  0  0  0  0  0  0  0  0  0
  148.3120  165.7970  181.9470 C   0  0  0  0  0  0  0  0  0  0  0  0
  147.9260  165.6290  183.2590 C   0  0  0  0  0  0  0  0  0  0  0  0
  146.8250  166.3100  183.4880 O   0  0  0  0  0  0  0  0  0  0  0  0
  146.4640  166.9240  182.3850 C   0  0  0  0  0  0  0  0  0  0  0  0
  149.1800  165.3690  181.4620 H   0  0  0  0  0  0  0  0  0  0  0  0
  148.4400  165.0310  184.0000 H   0  0  0  0  0  0  0  0  0  0  0  0
  145.5910  167.5600  182.2990 H   0  0  0  0  0  0  0  0  0  0  0  0
  150.5730  174.4400  176.3000 C   0  0  0  0  0  0  0  0  0  0  0  0
  150.6980  173.7620  175.4300 H   0  0  0  0  0  0  0  0  0  0  0  0
  150.8610  175.4610  175.9580 H   0  0  0  0  0  0  0  0  0  0  0  0
  151.2930  174.1270  177.0850 H   0  0  0  0  0  0  0  0  0  0  0  0
  148.1760  174.7340  175.6520 C   0  0  0  0  0  0  0  0  0  0  0  0
  148.4030  175.7210  175.1940 H   0  0  0  0  0  0  0  0  0  0  0  0
  148.2170  173.9640  174.8590 H   0  0  0  0  0  0  0  0  0  0  0  0
  147.1180  174.7790  175.9960 H   0  0  0  0  0  0  0  0  0  0  0  0
  145.4460  170.4660  177.8570 C   0  0  0  0  0  0  0  0  0  0  0  0
  144.9900  170.6380  178.8450 H   0  0  0  0  0  0  0  0  0  0  0  0
  145.0630  169.4840  177.5180 H   0  0  0  0  0  0  0  0  0  0  0  0
  145.0050  171.2080  177.1680 H   0  0  0  0  0  0  0  0  0  0  0  0
  149.2220  168.8330  180.1790 C   0  0  0  0  0  0  0  0  0  0  0  0
  149.4780  169.9050  180.3000 H   0  0  0  0  0  0  0  0  0  0  0  0
  149.4780  168.3210  181.1250 H   0  0  0  0  0  0  0  0  0  0  0  0
  149.9300  168.4120  179.4410 H   0  0  0  0  0  0  0  0  0  0  0  0
  146.4110  173.5750  178.3610 C   0  0  0  0  0  0  0  0  0  0  0  0
  145.8540  173.0950  177.5420 H   0  0  0  0  0  0  0  0  0  0  0  0
  145.7450  173.6080  179.2340 H   0  0  0  0  0  0  0  0  0  0  0  0
  146.5240  174.6150  178.0020 H   0  0  0  0  0  0  0  0  0  0  0  0
  149.7720  176.6300  177.7010 O   0  0  0  0  0  0  0  0  0  0  0  0
  150.4570  176.3450  177.0380 H   0  0  0  0  0  0  0  0  0  0  0  0
  149.4340  172.8970  180.4970 O   0  0  0  0  0  0  0  0  0  0  0  0
  150.4400  173.3860  181.3370 C   0  0  0  0  0  0  0  0  0  0  0  0
  151.6240  173.5330  180.9180 O   0  0  0  0  0  0  0  0  0  0  0  0
  150.1010  173.7600  182.7410 C   0  0  0  0  0  0  0  0  0  0  0  0
  149.1410  173.2910  183.0470 H   0  0  0  0  0  0  0  0  0  0  0  0
  150.9050  173.4120  183.4260 H   0  0  0  0  0  0  0  0  0  0  0  0
  150.0090  174.8640  182.8150 H   0  0  0  0  0  0  0  0  0  0  0  0
  147.4120  170.0730  175.4060 O   0  0  0  0  0  0  0  0  0  0  0  0
  146.4110  169.9500  174.4350 C   0  0  0  0  0  0  0  0  0  0  0  0
  145.5620  169.0190  174.4910 O   0  0  0  0  0  0  0  0  0  0  0  0
  146.3120  170.9730  173.3550 C   0  0  0  0  0  0  0  0  0  0  0  0
  147.1450  171.6980  173.4510 H   0  0  0  0  0  0  0  0  0  0  0  0
  146.3700  170.4880  172.3570 H   0  0  0  0  0  0  0  0  0  0  0  0
  145.3460  171.5130  173.4430 H   0  0  0  0  0  0  0  0  0  0  0  0
  1 66  1  0  0  0  0
  1 21  1  1  0  0  0
  2 23  1  0  0  0  0
  2  1  1  0  0  0  0
  2 22  1  0  0  0  0
  3 24  1  6  0  0  0
  3  2  1  0  0  0  0
  4  5  1  0  0  0  0
  4  3  1  0  0  0  0
  5 25  1  1  0  0  0
  5 20  1  0  0  0  0
  6 26  1  0  0  0  0
  6  5  1  0  0  0  0
  7 28  1  6  0  0  0
  7  6  1  0  0  0  0
  7  8  1  0  0  0  0
  8 52  1  1  0  0  0
  8 19  1  0  0  0  0
  8  9  1  0  0  0  0
  9 29  1  1  0  0  0
  9 10  1  0  0  0  0
 10 30  1  0  0  0  0
 10 11  1  0  0  0  0
 10 31  1  0  0  0  0
 11 33  1  0  0  0  0
 12 13  1  0  0  0  0
 12 56  1  1  0  0  0
 12 11  1  0  0  0  0
 13 34  1  6  0  0  0
 13 36  1  0  0  0  0
 14 13  1  0  0  0  0
 15 14  1  0  0  0  0
 16 15  2  0  0  0  0
 17 35  1  6  0  0  0
 17 18  1  0  0  0  0
 17 15  1  0  0  0  0
 17 19  1  0  0  0  0
 19 18  1  6  0  0  0
 19 12  1  0  0  0  0
 20 60  1  6  0  0  0
 20  9  1  0  0  0  0
 20  1  1  0  0  0  0
 27  6  1  0  0  0  0
 32 11  1  0  0  0  0
 36 37  1  0  0  0  0
 36 40  2  0  0  0  0
 37 38  2  0  0  0  0
 38 39  1  0  0  0  0
 38 42  1  0  0  0  0
 40 39  1  0  0  0  0
 41 37  1  0  0  0  0
 43 40  1  0  0  0  0
 44  4  1  0  0  0  0
 44 47  1  0  0  0  0
 45 44  1  0  0  0  0
 46 44  1  0  0  0  0
 48 51  1  0  0  0  0
 48  4  1  0  0  0  0
 49 48  1  0  0  0  0
 50 48  1  0  0  0  0
 52 53  1  0  0  0  0
 54 52  1  0  0  0  0
 55 52  1  0  0  0  0
 56 57  1  0  0  0  0
 56 58  1  0  0  0  0
 59 56  1  0  0  0  0
 60 62  1  0  0  0  0
 61 60  1  0  0  0  0
 63 60  1  0  0  0  0
 64  3  1  0  0  0  0
 65 64  1  0  0  0  0
 66 67  1  0  0  0  0
 67 69  1  0  0  0  0
 68 67  2  0  0  0  0
 69 72  1  0  0  0  0
 69 70  1  0  0  0  0
 69 71  1  0  0  0  0
 73  7  1  0  0  0  0
 74 75  2  0  0  0  0
 74 73  1  0  0  0  0
 76 79  1  0  0  0  0
 76 77  1  0  0  0  0
 76 74  1  0  0  0  0
 78 76  1  0  0  0  0
M  END
>  <MODEL>
3

>  <REMARK>
 VINA RESULT:      -7.3      2.967      6.282
  Name = 3-Deacetylkhivorin
  13 active torsions:
  status: ('A' for Active; 'I' for Inactive)
    1  A    between atoms: C_1  and  C_2
    2  A    between atoms: C_2  and  O_4
    3  A    between atoms: O_4  and  C_5
    4  A    between atoms: C_7  and  O_8
    5  A    between atoms: C_9  and  C_10
    6  A    between atoms: C_9  and  C_11
    7  A    between atoms: C_14  and  O_15
    8  A    between atoms: O_15  and  C_16
    9  A    between atoms: C_16  and  C_17
   10  A    between atoms: C_19  and  C_20
   11  A    between atoms: C_24  and  C_25
   12  A    between atoms: C_26  and  C_27
   13  A    between atoms: C_38  and  C_39
                            x       y       z     vdW  Elec       q    Type
                         _______ _______ _______ _____ _____    ______ ____

>  <TORSDO>
F 13

>  <vina_affinity>
-7.3

>  <vina_rmsd_lb>
2.967

>  <vina_rmsd_ub>
6.282

$$$$
3-Deacetylkhivorin
 OpenBabel09062217423D

 79 84  0  0  1  0  0  0  0  0999 V2000
  149.5660  175.4770  178.5530 C   0  0  1  0  0  0  0  0  0  0  0  0
  149.3260  176.5870  179.6260 C   0  0  0  0  0  0  0  0  0  0  0  0
  148.9970  176.1080  181.0570 C   0  0  2  0  0  0  0  0  0  0  0  0
  147.8040  175.0720  181.1100 C   0  0  0  0  0  0  0  0  0  0  0  0
  147.7180  174.2560  179.7570 C   0  0  2  0  0  0  0  0  0  0  0  0
  146.7210  173.0450  179.7060 C   0  0  0  0  0  0  0  0  0  0  0  0
  147.4100  171.7040  179.4560 C   0  0  2  0  0  0  0  0  0  0  0  0
  148.2200  171.6650  178.0940 C   0  0  2  0  0  0  0  0  0  0  0  0
  148.7870  173.1000  177.7650 C   0  0  2  0  0  0  0  0  0  0  0  0
  149.8490  173.0490  176.6230 C   0  0  0  0  0  0  0  0  0  0  0  0
  149.4390  172.1400  175.4280 C   0  0  0  0  0  0  0  0  0  0  0  0
  147.9220  171.7830  175.3650 C   0  0  1  0  0  0  0  0  0  0  0  0
  147.6530  170.6720  174.2880 C   0  0  1  0  0  0  0  0  0  0  0  0
  146.2450  170.4220  174.2150 O   0  0  0  0  0  0  0  0  0  0  0  0
  145.4340  170.4080  175.3570 C   0  0  0  0  0  0  0  0  0  0  0  0
  144.1980  170.1960  175.2380 O   0  0  0  0  0  0  0  0  0  0  0  0
  146.0230  170.6580  176.7170 C   0  0  1  0  0  0  0  0  0  0  0  0
  147.1610  169.8490  176.8330 O   0  0  0  0  0  0  0  0  0  0  0  0
  147.4150  171.2460  176.7790 C   0  0  2  0  0  0  0  0  0  0  0  0
  149.0940  174.0380  179.0020 C   0  0  1  0  0  0  0  0  0  0  0  0
  150.6540  175.4280  178.3160 H   0  0  0  0  0  0  0  0  0  0  0  0
  150.2190  177.2470  179.6630 H   0  0  0  0  0  0  0  0  0  0  0  0
  148.4840  177.2350  179.2980 H   0  0  0  0  0  0  0  0  0  0  0  0
  149.9200  175.6540  181.4770 H   0  0  0  0  0  0  0  0  0  0  0  0
  147.1860  174.9660  179.0810 H   0  0  0  0  0  0  0  0  0  0  0  0
  145.9820  173.1920  178.8860 H   0  0  0  0  0  0  0  0  0  0  0  0
  146.1140  172.9740  180.6280 H   0  0  0  0  0  0  0  0  0  0  0  0
  148.0960  171.5990  180.3170 H   0  0  0  0  0  0  0  0  0  0  0  0
  147.9300  173.6310  177.3150 H   0  0  0  0  0  0  0  0  0  0  0  0
  150.8330  172.7050  177.0070 H   0  0  0  0  0  0  0  0  0  0  0  0
  150.0240  174.0700  176.2210 H   0  0  0  0  0  0  0  0  0  0  0  0
  150.0410  171.2100  175.4430 H   0  0  0  0  0  0  0  0  0  0  0  0
  149.7370  172.6590  174.4880 H   0  0  0  0  0  0  0  0  0  0  0  0
  148.1540  169.7320  174.6120 H   0  0  0  0  0  0  0  0  0  0  0  0
  145.3560  170.5710  177.5890 H   0  0  0  0  0  0  0  0  0  0  0  0
  148.1880  170.9760  172.9080 C   0  0  0  0  0  0  0  0  0  0  0  0
  147.5200  171.6430  171.9020 C   0  0  0  0  0  0  0  0  0  0  0  0
  148.3950  171.6950  170.8380 C   0  0  0  0  0  0  0  0  0  0  0  0
  149.5260  171.1090  171.1660 O   0  0  0  0  0  0  0  0  0  0  0  0
  149.4390  170.6700  172.4010 C   0  0  0  0  0  0  0  0  0  0  0  0
  146.5150  172.0450  171.9390 H   0  0  0  0  0  0  0  0  0  0  0  0
  148.1980  172.1450  169.8750 H   0  0  0  0  0  0  0  0  0  0  0  0
  150.2350  170.1530  172.9220 H   0  0  0  0  0  0  0  0  0  0  0  0
  146.4580  175.8290  181.3110 C   0  0  0  0  0  0  0  0  0  0  0  0
  145.8630  175.3860  182.1360 H   0  0  0  0  0  0  0  0  0  0  0  0
  146.6240  176.9000  181.5700 H   0  0  0  0  0  0  0  0  0  0  0  0
  145.8430  175.7930  180.3870 H   0  0  0  0  0  0  0  0  0  0  0  0
  148.0020  174.1560  182.3450 C   0  0  0  0  0  0  0  0  0  0  0  0
  148.4730  174.6910  183.1960 H   0  0  0  0  0  0  0  0  0  0  0  0
  147.0530  173.7100  182.6950 H   0  0  0  0  0  0  0  0  0  0  0  0
  148.6770  173.3070  182.0910 H   0  0  0  0  0  0  0  0  0  0  0  0
  149.3650  170.6200  178.3230 C   0  0  0  0  0  0  0  0  0  0  0  0
  149.1980  169.9430  179.1740 H   0  0  0  0  0  0  0  0  0  0  0  0
  150.3260  171.1300  178.5290 H   0  0  0  0  0  0  0  0  0  0  0  0
  149.5540  169.9830  177.4400 H   0  0  0  0  0  0  0  0  0  0  0  0
  147.1250  173.0730  174.9640 C   0  0  0  0  0  0  0  0  0  0  0  0
  146.3900  173.3650  175.7430 H   0  0  0  0  0  0  0  0  0  0  0  0
  147.7810  173.9450  174.7840 H   0  0  0  0  0  0  0  0  0  0  0  0
  146.5650  172.9520  174.0190 H   0  0  0  0  0  0  0  0  0  0  0  0
  150.2410  173.4040  179.8500 C   0  0  0  0  0  0  0  0  0  0  0  0
  150.1650  173.6110  180.9290 H   0  0  0  0  0  0  0  0  0  0  0  0
  150.3370  172.3170  179.7310 H   0  0  0  0  0  0  0  0  0  0  0  0
  151.2210  173.8450  179.5870 H   0  0  0  0  0  0  0  0  0  0  0  0
  148.7170  177.2500  181.8390 O   0  0  0  0  0  0  0  0  0  0  0  0
  148.9510  178.0500  181.2960 H   0  0  0  0  0  0  0  0  0  0  0  0
  148.8610  175.8760  177.3710 O   0  0  0  0  0  0  0  0  0  0  0  0
  147.9940  176.9720  177.3100 C   0  0  0  0  0  0  0  0  0  0  0  0
  148.4270  178.1320  177.0550 O   0  0  0  0  0  0  0  0  0  0  0  0
  146.5330  176.7600  177.5270 C   0  0  0  0  0  0  0  0  0  0  0  0
  146.0890  176.2080  176.6710 H   0  0  0  0  0  0  0  0  0  0  0  0
  146.3750  176.1710  178.4570 H   0  0  0  0  0  0  0  0  0  0  0  0
  146.0310  177.7450  177.6290 H   0  0  0  0  0  0  0  0  0  0  0  0
  146.4560  170.6460  179.5750 O   0  0  0  0  0  0  0  0  0  0  0  0
  146.5360  169.5990  180.5000 C   0  0  0  0  0  0  0  0  0  0  0  0
  146.1960  169.7670  181.7030 O   0  0  0  0  0  0  0  0  0  0  0  0
  146.9720  168.2490  180.0390 C   0  0  0  0  0  0  0  0  0  0  0  0
  147.9530  168.3290  179.5310 H   0  0  0  0  0  0  0  0  0  0  0  0
  147.0680  167.5590  180.9040 H   0  0  0  0  0  0  0  0  0  0  0  0
  146.2240  167.8420  179.3280 H   0  0  0  0  0  0  0  0  0  0  0  0
  1 21  1  6  0  0  0
  1 20  1  0  0  0  0
  1  2  1  0  0  0  0
  2 22  1  0  0  0  0
  2  3  1  0  0  0  0
  3  4  1  0  0  0  0
  3 24  1  1  0  0  0
  3 64  1  0  0  0  0
  4 44  1  0  0  0  0
  4 48  1  0  0  0  0
  5 25  1  6  0  0  0
  5  4  1  0  0  0  0
  6  5  1  0  0  0  0
  6 27  1  0  0  0  0
  7 73  1  0  0  0  0
  7  6  1  0  0  0  0
  7 28  1  1  0  0  0
  8 52  1  1  0  0  0
  8  7  1  0  0  0  0
  9 29  1  6  0  0  0
  9  8  1  0  0  0  0
  9 20  1  0  0  0  0
 10 30  1  0  0  0  0
 10  9  1  0  0  0  0
 11 32  1  0  0  0  0
 11 10  1  0  0  0  0
 12 56  1  6  0  0  0
 12 11  1  0  0  0  0
 12 19  1  0  0  0  0
 13 34  1  1  0  0  0
 13 12  1  0  0  0  0
 14 13  1  0  0  0  0
 14 15  1  0  0  0  0
 15 17  1  0  0  0  0
 16 15  2  0  0  0  0
 17 19  1  0  0  0  0
 17 18  1  0  0  0  0
 17 35  1  1  0  0  0
 19 18  1  6  0  0  0
 19  8  1  0  0  0  0
 20  5  1  0  0  0  0
 20 60  1  1  0  0  0
 23  2  1  0  0  0  0
 26  6  1  0  0  0  0
 31 10  1  0  0  0  0
 33 11  1  0  0  0  0
 36 13  1  0  0  0  0
 37 41  1  0  0  0  0
 37 36  1  0  0  0  0
 38 39  1  0  0  0  0
 38 37  2  0  0  0  0
 39 40  1  0  0  0  0
 40 36  2  0  0  0  0
 40 43  1  0  0  0  0
 42 38  1  0  0  0  0
 44 46  1  0  0  0  0
 44 45  1  0  0  0  0
 47 44  1  0  0  0  0
 48 50  1  0  0  0  0
 48 49  1  0  0  0  0
 51 48  1  0  0  0  0
 52 54  1  0  0  0  0
 52 53  1  0  0  0  0
 55 52  1  0  0  0  0
 56 57  1  0  0  0  0
 58 56  1  0  0  0  0
 59 56  1  0  0  0  0
 60 61  1  0  0  0  0
 62 60  1  0  0  0  0
 63 60  1  0  0  0  0
 65 64  1  0  0  0  0
 66  1  1  0  0  0  0
 67 66  1  0  0  0  0
 67 69  1  0  0  0  0
 68 67  2  0  0  0  0
 69 72  1  0  0  0  0
 69 71  1  0  0  0  0
 70 69  1  0  0  0  0
 73 74  1  0  0  0  0
 74 75  2  0  0  0  0
 76 74  1  0  0  0  0
 76 78  1  0  0  0  0
 77 76  1  0  0  0  0
 79 76  1  0  0  0  0
M  END
>  <MODEL>
4

>  <REMARK>
 VINA RESULT:      -7.3      2.024      7.676
  Name = 3-Deacetylkhivorin
  13 active torsions:
  status: ('A' for Active; 'I' for Inactive)
    1  A    between atoms: C_1  and  C_2
    2  A    between atoms: C_2  and  O_4
    3  A    between atoms: O_4  and  C_5
    4  A    between atoms: C_7  and  O_8
    5  A    between atoms: C_9  and  C_10
    6  A    between atoms: C_9  and  C_11
    7  A    between atoms: C_14  and  O_15
    8  A    between atoms: O_15  and  C_16
    9  A    between atoms: C_16  and  C_17
   10  A    between atoms: C_19  and  C_20
   11  A    between atoms: C_24  and  C_25
   12  A    between atoms: C_26  and  C_27
   13  A    between atoms: C_38  and  C_39
                            x       y       z     vdW  Elec       q    Type
                         _______ _______ _______ _____ _____    ______ ____

>  <TORSDO>
F 13

>  <vina_affinity>
-7.3

>  <vina_rmsd_lb>
2.024

>  <vina_rmsd_ub>
7.676

$$$$
3-Deacetylkhivorin
 OpenBabel09062217423D

 79 84  0  0  1  0  0  0  0  0999 V2000
  147.3290  170.6840  179.7850 C   0  0  1  0  0  0  0  0  0  0  0  0
  146.3640  169.4600  179.6680 C   0  0  0  0  0  0  0  0  0  0  0  0
  146.2600  168.7880  178.2810 C   0  0  2  0  0  0  0  0  0  0  0  0
  145.9450  169.8090  177.1150 C   0  0  0  0  0  0  0  0  0  0  0  0
  146.5010  171.2470  177.4710 C   0  0  2  0  0  0  0  0  0  0  0  0
  146.4560  172.3380  176.3440 C   0  0  0  0  0  0  0  0  0  0  0  0
  147.8380  172.8560  175.9480 C   0  0  2  0  0  0  0  0  0  0  0  0
  148.6290  173.5060  177.1580 C   0  0  2  0  0  0  0  0  0  0  0  0
  148.2350  172.7860  178.5060 C   0  0  2  0  0  0  0  0  0  0  0  0
  149.2110  173.1620  179.6640 C   0  0  0  0  0  0  0  0  0  0  0  0
  149.5530  174.6790  179.7260 C   0  0  0  0  0  0  0  0  0  0  0  0
  148.5810  175.6040  178.9320 C   0  0  1  0  0  0  0  0  0  0  0  0
  149.1450  177.0670  178.8440 C   0  0  1  0  0  0  0  0  0  0  0  0
  148.1940  177.8970  178.1690 O   0  0  0  0  0  0  0  0  0  0  0  0
  147.4550  177.4360  177.0720 C   0  0  0  0  0  0  0  0  0  0  0  0
  146.6210  178.2020  176.5200 O   0  0  0  0  0  0  0  0  0  0  0  0
  147.6390  176.0360  176.5590 C   0  0  1  0  0  0  0  0  0  0  0  0
  149.0170  175.8150  176.4340 O   0  0  0  0  0  0  0  0  0  0  0  0
  148.3730  175.0560  177.4480 C   0  0  2  0  0  0  0  0  0  0  0  0
  147.7890  171.2720  178.3930 C   0  0  1  0  0  0  0  0  0  0  0  0
  148.2390  170.3770  180.3510 H   0  0  0  0  0  0  0  0  0  0  0  0
  146.6630  168.6970  180.4170 H   0  0  0  0  0  0  0  0  0  0  0  0
  145.3370  169.7780  179.9540 H   0  0  0  0  0  0  0  0  0  0  0  0
  147.2240  168.2710  178.0890 H   0  0  0  0  0  0  0  0  0  0  0  0
  145.7140  171.6470  178.1530 H   0  0  0  0  0  0  0  0  0  0  0  0
  145.8620  173.2160  176.6850 H   0  0  0  0  0  0  0  0  0  0  0  0
  145.9340  171.9730  175.4400 H   0  0  0  0  0  0  0  0  0  0  0  0
  148.3610  171.9520  175.5850 H   0  0  0  0  0  0  0  0  0  0  0  0
  147.2790  173.2580  178.7930 H   0  0  0  0  0  0  0  0  0  0  0  0
  150.1590  172.5890  179.5890 H   0  0  0  0  0  0  0  0  0  0  0  0
  148.7660  172.8810  180.6420 H   0  0  0  0  0  0  0  0  0  0  0  0
  150.5920  174.8420  179.3750 H   0  0  0  0  0  0  0  0  0  0  0  0
  149.5620  174.9820  180.7980 H   0  0  0  0  0  0  0  0  0  0  0  0
  150.0810  177.0520  178.2420 H   0  0  0  0  0  0  0  0  0  0  0  0
  147.0850  175.7430  175.6540 H   0  0  0  0  0  0  0  0  0  0  0  0
  149.5130  177.6910  180.1710 C   0  0  0  0  0  0  0  0  0  0  0  0
  150.7410  177.6170  180.7960 C   0  0  0  0  0  0  0  0  0  0  0  0
  150.6130  178.3360  181.9650 C   0  0  0  0  0  0  0  0  0  0  0  0
  149.3960  178.8250  182.0530 O   0  0  0  0  0  0  0  0  0  0  0  0
  148.7100  178.4620  180.9930 C   0  0  0  0  0  0  0  0  0  0  0  0
  151.6250  177.1030  180.4410 H   0  0  0  0  0  0  0  0  0  0  0  0
  151.3860  178.4840  182.7070 H   0  0  0  0  0  0  0  0  0  0  0  0
  147.6790  178.7360  180.8110 H   0  0  0  0  0  0  0  0  0  0  0  0
  144.4040  169.9170  176.9130 C   0  0  0  0  0  0  0  0  0  0  0  0
  143.8620  169.8430  177.8780 H   0  0  0  0  0  0  0  0  0  0  0  0
  144.1180  170.8900  176.4540 H   0  0  0  0  0  0  0  0  0  0  0  0
  144.0360  169.1050  176.2500 H   0  0  0  0  0  0  0  0  0  0  0  0
  146.5410  169.2500  175.7980 C   0  0  0  0  0  0  0  0  0  0  0  0
  145.9940  169.6110  174.9010 H   0  0  0  0  0  0  0  0  0  0  0  0
  147.6110  169.5040  175.6790 H   0  0  0  0  0  0  0  0  0  0  0  0
  146.4750  168.1390  175.7860 H   0  0  0  0  0  0  0  0  0  0  0  0
  150.1460  173.3140  176.8130 C   0  0  0  0  0  0  0  0  0  0  0  0
  150.4310  173.6670  175.8100 H   0  0  0  0  0  0  0  0  0  0  0  0
  150.4220  172.2430  176.8430 H   0  0  0  0  0  0  0  0  0  0  0  0
  150.8200  173.8130  177.5310 H   0  0  0  0  0  0  0  0  0  0  0  0
  147.2050  175.6420  179.6860 C   0  0  0  0  0  0  0  0  0  0  0  0
  146.3870  176.0130  179.0350 H   0  0  0  0  0  0  0  0  0  0  0  0
  146.9000  174.6520  180.0720 H   0  0  0  0  0  0  0  0  0  0  0  0
  147.2270  176.2900  180.5810 H   0  0  0  0  0  0  0  0  0  0  0  0
  148.9990  170.4210  177.8930 C   0  0  0  0  0  0  0  0  0  0  0  0
  148.8080  169.3370  177.8830 H   0  0  0  0  0  0  0  0  0  0  0  0
  149.3590  170.7000  176.8940 H   0  0  0  0  0  0  0  0  0  0  0  0
  149.8600  170.5100  178.5820 H   0  0  0  0  0  0  0  0  0  0  0  0
  145.2710  167.7840  178.3630 O   0  0  0  0  0  0  0  0  0  0  0  0
  144.4350  168.1540  177.9720 H   0  0  0  0  0  0  0  0  0  0  0  0
  146.6430  171.6900  180.5380 O   0  0  0  0  0  0  0  0  0  0  0  0
  145.3400  171.5480  181.0300 C   0  0  0  0  0  0  0  0  0  0  0  0
  145.1240  171.0130  182.1540 O   0  0  0  0  0  0  0  0  0  0  0  0
  144.1950  172.0570  180.2200 C   0  0  0  0  0  0  0  0  0  0  0  0
  143.3300  171.3650  180.2930 H   0  0  0  0  0  0  0  0  0  0  0  0
  143.8890  173.0580  180.5930 H   0  0  0  0  0  0  0  0  0  0  0  0
  144.5070  172.1420  179.1570 H   0  0  0  0  0  0  0  0  0  0  0  0
  147.7180  173.7270  174.8210 O   0  0  0  0  0  0  0  0  0  0  0  0
  148.2530  173.4710  173.5530 C   0  0  0  0  0  0  0  0  0  0  0  0
  149.4990  173.3820  173.3800 O   0  0  0  0  0  0  0  0  0  0  0  0
  147.3310  173.2410  172.4040 C   0  0  0  0  0  0  0  0  0  0  0  0
  146.8510  174.1970  172.1150 H   0  0  0  0  0  0  0  0  0  0  0  0
  147.8920  172.8400  171.5330 H   0  0  0  0  0  0  0  0  0  0  0  0
  146.5460  172.5130  172.7000 H   0  0  0  0  0  0  0  0  0  0  0  0
  1 21  1  1  0  0  0
  1 66  1  0  0  0  0
  2  1  1  0  0  0  0
  2 23  1  0  0  0  0
  2 22  1  0  0  0  0
  3 24  1  6  0  0  0
  3 64  1  0  0  0  0
  3  2  1  0  0  0  0
  4  5  1  0  0  0  0
  4  3  1  0  0  0  0
  5 25  1  1  0  0  0
  5 20  1  0  0  0  0
  6 26  1  0  0  0  0
  6  5  1  0  0  0  0
  7 28  1  6  0  0  0
  7  6  1  0  0  0  0
  7  8  1  0  0  0  0
  8 52  1  6  0  0  0
  8 19  1  0  0  0  0
  8  9  1  0  0  0  0
  9 29  1  1  0  0  0
  9 10  1  0  0  0  0
 10 11  1  0  0  0  0
 10 31  1  0  0  0  0
 11 33  1  0  0  0  0
 12 56  1  1  0  0  0
 12 11  1  0  0  0  0
 13 34  1  6  0  0  0
 13 12  1  0  0  0  0
 13 36  1  0  0  0  0
 14 13  1  0  0  0  0
 15 14  1  0  0  0  0
 16 15  2  0  0  0  0
 17 35  1  6  0  0  0
 17 15  1  0  0  0  0
 17 19  1  0  0  0  0
 18 17  1  0  0  0  0
 19 18  1  6  0  0  0
 19 12  1  0  0  0  0
 20 60  1  6  0  0  0
 20  9  1  0  0  0  0
 20  1  1  0  0  0  0
 27  6  1  0  0  0  0
 30 10  1  0  0  0  0
 32 11  1  0  0  0  0
 36 37  1  0  0  0  0
 36 40  2  0  0  0  0
 37 38  2  0  0  0  0
 38 39  1  0  0  0  0
 38 42  1  0  0  0  0
 40 39  1  0  0  0  0
 41 37  1  0  0  0  0
 43 40  1  0  0  0  0
 44  4  1  0  0  0  0
 44 45  1  0  0  0  0
 46 44  1  0  0  0  0
 47 44  1  0  0  0  0
 48  4  1  0  0  0  0
 49 48  1  0  0  0  0
 50 48  1  0  0  0  0
 51 48  1  0  0  0  0
 52 54  1  0  0  0  0
 52 55  1  0  0  0  0
 53 52  1  0  0  0  0
 56 58  1  0  0  0  0
 56 59  1  0  0  0  0
 57 56  1  0  0  0  0
 60 63  1  0  0  0  0
 61 60  1  0  0  0  0
 62 60  1  0  0  0  0
 65 64  1  0  0  0  0
 66 67  1  0  0  0  0
 67 68  2  0  0  0  0
 69 70  1  0  0  0  0
 69 71  1  0  0  0  0
 69 67  1  0  0  0  0
 72 69  1  0  0  0  0
 73  7  1  0  0  0  0
 74 73  1  0  0  0  0
 75 74  2  0  0  0  0
 76 79  1  0  0  0  0
 76 74  1  0  0  0  0
 77 76  1  0  0  0  0
 78 76  1  0  0  0  0
M  END
>  <MODEL>
5

>  <REMARK>
 VINA RESULT:      -7.1      2.356      5.784
  Name = 3-Deacetylkhivorin
  13 active torsions:
  status: ('A' for Active; 'I' for Inactive)
    1  A    between atoms: C_1  and  C_2
    2  A    between atoms: C_2  and  O_4
    3  A    between atoms: O_4  and  C_5
    4  A    between atoms: C_7  and  O_8
    5  A    between atoms: C_9  and  C_10
    6  A    between atoms: C_9  and  C_11
    7  A    between atoms: C_14  and  O_15
    8  A    between atoms: O_15  and  C_16
    9  A    between atoms: C_16  and  C_17
   10  A    between atoms: C_19  and  C_20
   11  A    between atoms: C_24  and  C_25
   12  A    between atoms: C_26  and  C_27
   13  A    between atoms: C_38  and  C_39
                            x       y       z     vdW  Elec       q    Type
                         _______ _______ _______ _____ _____    ______ ____

>  <TORSDO>
F 13

>  <vina_affinity>
-7.1

>  <vina_rmsd_lb>
2.356

>  <vina_rmsd_ub>
5.784

$$$$
3-Deacetylkhivorin
 OpenBabel09062217423D

 79 84  0  0  1  0  0  0  0  0999 V2000
  148.2400  177.2140  178.5450 C   0  0  1  0  0  0  0  0  0  0  0  0
  147.8900  178.7140  178.2790 C   0  0  0  0  0  0  0  0  0  0  0  0
  147.2830  179.5050  179.4580 C   0  0  2  0  0  0  0  0  0  0  0  0
  146.0330  178.7890  180.1110 C   0  0  0  0  0  0  0  0  0  0  0  0
  146.1320  177.2210  179.9280 C   0  0  2  0  0  0  0  0  0  0  0  0
  145.0810  176.3370  180.6870 C   0  0  0  0  0  0  0  0  0  0  0  0
  145.7110  175.3830  181.7000 C   0  0  2  0  0  0  0  0  0  0  0  0
  146.7440  174.3740  181.0450 C   0  0  2  0  0  0  0  0  0  0  0  0
  147.4550  175.0570  179.8130 C   0  0  2  0  0  0  0  0  0  0  0  0
  148.6960  174.2380  179.3400 C   0  0  0  0  0  0  0  0  0  0  0  0
  148.4420  172.7040  179.2710 C   0  0  0  0  0  0  0  0  0  0  0  0
  146.9400  172.2860  179.2700 C   0  0  1  0  0  0  0  0  0  0  0  0
  146.7900  170.7330  179.4540 C   0  0  1  0  0  0  0  0  0  0  0  0
  145.4040  170.3840  179.3790 O   0  0  0  0  0  0  0  0  0  0  0  0
  144.4050  171.1880  179.9440 C   0  0  0  0  0  0  0  0  0  0  0  0
  143.1990  170.8430  179.8400 O   0  0  0  0  0  0  0  0  0  0  0  0
  144.7620  172.4620  180.6570 C   0  0  1  0  0  0  0  0  0  0  0  0
  145.8050  172.1660  181.5440 O   0  0  0  0  0  0  0  0  0  0  0  0
  146.1570  173.0100  180.4570 C   0  0  2  0  0  0  0  0  0  0  0  0
  147.6010  176.6320  179.8670 C   0  0  1  0  0  0  0  0  0  0  0  0
  149.3470  177.1060  178.6170 H   0  0  0  0  0  0  0  0  0  0  0  0
  148.8040  179.2370  177.9270 H   0  0  0  0  0  0  0  0  0  0  0  0
  147.1640  178.7740  177.4380 H   0  0  0  0  0  0  0  0  0  0  0  0
  148.0850  179.6420  180.2150 H   0  0  0  0  0  0  0  0  0  0  0  0
  145.7760  177.0790  178.8800 H   0  0  0  0  0  0  0  0  0  0  0  0
  144.5090  175.7140  179.9620 H   0  0  0  0  0  0  0  0  0  0  0  0
  144.3170  176.9540  181.1970 H   0  0  0  0  0  0  0  0  0  0  0  0
  146.2270  176.0580  182.4080 H   0  0  0  0  0  0  0  0  0  0  0  0
  146.7280  174.9490  178.9890 H   0  0  0  0  0  0  0  0  0  0  0  0
  149.5710  174.4220  179.9970 H   0  0  0  0  0  0  0  0  0  0  0  0
  149.0060  174.5700  178.3260 H   0  0  0  0  0  0  0  0  0  0  0  0
  148.9690  172.2010  180.1070 H   0  0  0  0  0  0  0  0  0  0  0  0
  148.9360  172.3190  178.3490 H   0  0  0  0  0  0  0  0  0  0  0  0
  147.1630  170.4560  180.4650 H   0  0  0  0  0  0  0  0  0  0  0  0
  143.9480  173.0250  181.1410 H   0  0  0  0  0  0  0  0  0  0  0  0
  147.5790  169.8950  178.4740 C   0  0  0  0  0  0  0  0  0  0  0  0
  147.1040  169.3450  177.3020 C   0  0  0  0  0  0  0  0  0  0  0  0
  148.1710  168.6790  176.7380 C   0  0  0  0  0  0  0  0  0  0  0  0
  149.2320  168.8140  177.5030 O   0  0  0  0  0  0  0  0  0  0  0  0
  148.9150  169.5400  178.5500 C   0  0  0  0  0  0  0  0  0  0  0  0
  146.1000  169.4220  176.9030 H   0  0  0  0  0  0  0  0  0  0  0  0
  148.1550  168.1250  175.8080 H   0  0  0  0  0  0  0  0  0  0  0  0
  149.6080  169.8090  179.3380 H   0  0  0  0  0  0  0  0  0  0  0  0
  144.7260  179.2810  179.4220 C   0  0  0  0  0  0  0  0  0  0  0  0
  143.8370  179.0990  180.0600 H   0  0  0  0  0  0  0  0  0  0  0  0
  144.7580  180.3760  179.2150 H   0  0  0  0  0  0  0  0  0  0  0  0
  144.5680  178.7560  178.4560 H   0  0  0  0  0  0  0  0  0  0  0  0
  145.9490  179.2090  181.6020 C   0  0  0  0  0  0  0  0  0  0  0  0
  146.0130  180.3100  181.7340 H   0  0  0  0  0  0  0  0  0  0  0  0
  145.0220  178.8530  182.0880 H   0  0  0  0  0  0  0  0  0  0  0  0
  146.7970  178.7700  182.1740 H   0  0  0  0  0  0  0  0  0  0  0  0
  147.7590  174.0200  182.1860 C   0  0  0  0  0  0  0  0  0  0  0  0
  147.4630  174.3790  183.1840 H   0  0  0  0  0  0  0  0  0  0  0  0
  148.7480  174.4750  181.9850 H   0  0  0  0  0  0  0  0  0  0  0  0
  147.9470  172.9360  182.2790 H   0  0  0  0  0  0  0  0  0  0  0  0
  146.3130  172.6900  177.8900 C   0  0  0  0  0  0  0  0  0  0  0  0
  147.0830  172.7750  177.0950 H   0  0  0  0  0  0  0  0  0  0  0  0
  145.5510  171.9700  177.5370 H   0  0  0  0  0  0  0  0  0  0  0  0
  145.7780  173.6560  177.9300 H   0  0  0  0  0  0  0  0  0  0  0  0
  148.5360  177.0160  181.0570 C   0  0  0  0  0  0  0  0  0  0  0  0
  148.2690  176.5310  182.0090 H   0  0  0  0  0  0  0  0  0  0  0  0
  149.6000  176.8150  180.8740 H   0  0  0  0  0  0  0  0  0  0  0  0
  148.4490  178.0920  181.3000 H   0  0  0  0  0  0  0  0  0  0  0  0
  146.9470  180.7910  178.9860 O   0  0  0  0  0  0  0  0  0  0  0  0
  146.1590  180.6940  178.3860 H   0  0  0  0  0  0  0  0  0  0  0  0
  147.7830  176.4690  177.4110 O   0  0  0  0  0  0  0  0  0  0  0  0
  148.6260  175.9510  176.4220 C   0  0  0  0  0  0  0  0  0  0  0  0
  149.8260  176.3360  176.3230 O   0  0  0  0  0  0  0  0  0  0  0  0
  148.1020  174.9130  175.4870 C   0  0  0  0  0  0  0  0  0  0  0  0
  148.3400  173.8950  175.8640 H   0  0  0  0  0  0  0  0  0  0  0  0
  146.9990  175.0160  175.3940 H   0  0  0  0  0  0  0  0  0  0  0  0
  148.5680  175.0520  174.4880 H   0  0  0  0  0  0  0  0  0  0  0  0
  144.6830  174.7300  182.4480 O   0  0  0  0  0  0  0  0  0  0  0  0
  144.4740  174.8870  183.8230 C   0  0  0  0  0  0  0  0  0  0  0  0
  143.6110  174.1970  184.4310 O   0  0  0  0  0  0  0  0  0  0  0  0
  145.3270  175.8410  184.5880 C   0  0  0  0  0  0  0  0  0  0  0  0
  145.5800  175.4050  185.5750 H   0  0  0  0  0  0  0  0  0  0  0  0
  146.2670  176.0470  184.0340 H   0  0  0  0  0  0  0  0  0  0  0  0
  144.7750  176.7920  184.7390 H   0  0  0  0  0  0  0  0  0  0  0  0
  1 21  1  1  0  0  0
  1 20  1  0  0  0  0
  2  1  1  0  0  0  0
  2  3  1  0  0  0  0
  3  4  1  0  0  0  0
  3 24  1  1  0  0  0
  4 48  1  0  0  0  0
  5 25  1  6  0  0  0
  5  4  1  0  0  0  0
  5  6  1  0  0  0  0
  6 27  1  0  0  0  0
  6  7  1  0  0  0  0
  7 28  1  1  0  0  0
  7 73  1  0  0  0  0
  8  7  1  0  0  0  0
  8 52  1  1  0  0  0
  9 29  1  6  0  0  0
  9 20  1  0  0  0  0
  9  8  1  0  0  0  0
 10  9  1  0  0  0  0
 10 30  1  0  0  0  0
 11 10  1  0  0  0  0
 11 32  1  0  0  0  0
 12 56  1  6  0  0  0
 12 11  1  0  0  0  0
 12 13  1  0  0  0  0
 12 19  1  0  0  0  0
 13 34  1  1  0  0  0
 14 13  1  0  0  0  0
 14 15  1  0  0  0  0
 15 17  1  0  0  0  0
 16 15  2  0  0  0  0
 17 35  1  1  0  0  0
 17 18  1  0  0  0  0
 19 17  1  0  0  0  0
 19  8  1  0  0  0  0
 19 18  1  1  0  0  0
 20  5  1  0  0  0  0
 20 60  1  1  0  0  0
 22  2  1  0  0  0  0
 23  2  1  0  0  0  0
 26  6  1  0  0  0  0
 31 10  1  0  0  0  0
 33 11  1  0  0  0  0
 36 40  2  0  0  0  0
 36 13  1  0  0  0  0
 37 36  1  0  0  0  0
 38 37  2  0  0  0  0
 38 39  1  0  0  0  0
 39 40  1  0  0  0  0
 40 43  1  0  0  0  0
 41 37  1  0  0  0  0
 42 38  1  0  0  0  0
 44 45  1  0  0  0  0
 44  4  1  0  0  0  0
 46 44  1  0  0  0  0
 47 44  1  0  0  0  0
 48 49  1  0  0  0  0
 48 50  1  0  0  0  0
 48 51  1  0  0  0  0
 52 55  1  0  0  0  0
 52 53  1  0  0  0  0
 54 52  1  0  0  0  0
 56 59  1  0  0  0  0
 57 56  1  0  0  0  0
 58 56  1  0  0  0  0
 60 63  1  0  0  0  0
 60 61  1  0  0  0  0
 62 60  1  0  0  0  0
 64  3  1  0  0  0  0
 65 64  1  0  0  0  0
 66  1  1  0  0  0  0
 67 66  1  0  0  0  0
 68 67  2  0  0  0  0
 69 70  1  0  0  0  0
 69 67  1  0  0  0  0
 71 69  1  0  0  0  0
 72 69  1  0  0  0  0
 73 74  1  0  0  0  0
 74 75  2  0  0  0  0
 74 76  1  0  0  0  0
 76 79  1  0  0  0  0
 76 77  1  0  0  0  0
 78 76  1  0  0  0  0
M  END
>  <MODEL>
6

>  <REMARK>
 VINA RESULT:      -7.1      2.678      6.790
  Name = 3-Deacetylkhivorin
  13 active torsions:
  status: ('A' for Active; 'I' for Inactive)
    1  A    between atoms: C_1  and  C_2
    2  A    between atoms: C_2  and  O_4
    3  A    between atoms: O_4  and  C_5
    4  A    between atoms: C_7  and  O_8
    5  A    between atoms: C_9  and  C_10
    6  A    between atoms: C_9  and  C_11
    7  A    between atoms: C_14  and  O_15
    8  A    between atoms: O_15  and  C_16
    9  A    between atoms: C_16  and  C_17
   10  A    between atoms: C_19  and  C_20
   11  A    between atoms: C_24  and  C_25
   12  A    between atoms: C_26  and  C_27
   13  A    between atoms: C_38  and  C_39
                            x       y       z     vdW  Elec       q    Type
                         _______ _______ _______ _____ _____    ______ ____

>  <TORSDO>
F 13

>  <vina_affinity>
-7.1

>  <vina_rmsd_lb>
2.678

>  <vina_rmsd_ub>
6.790

$$$$
3-Deacetylkhivorin
 OpenBabel09062217423D

 79 84  0  0  1  0  0  0  0  0999 V2000
  147.1240  171.3540  180.5100 C   0  0  1  0  0  0  0  0  0  0  0  0
  146.5600  170.1240  179.7290 C   0  0  0  0  0  0  0  0  0  0  0  0
  147.3610  169.6600  178.4930 C   0  0  2  0  0  0  0  0  0  0  0  0
  147.6630  170.8270  177.4710 C   0  0  0  0  0  0  0  0  0  0  0  0
  147.7330  172.2180  178.2210 C   0  0  2  0  0  0  0  0  0  0  0  0
  148.2210  173.4600  177.3960 C   0  0  0  0  0  0  0  0  0  0  0  0
  149.5030  174.0870  177.9450 C   0  0  2  0  0  0  0  0  0  0  0  0
  149.3600  174.5820  179.4430 C   0  0  2  0  0  0  0  0  0  0  0  0
  148.3460  173.6570  180.2210 C   0  0  2  0  0  0  0  0  0  0  0  0
  148.4150  173.8970  181.7620 C   0  0  0  0  0  0  0  0  0  0  0  0
  148.4740  175.4010  182.1570 C   0  0  0  0  0  0  0  0  0  0  0  0
  148.0410  176.3930  181.0350 C   0  0  1  0  0  0  0  0  0  0  0  0
  148.3730  177.8750  181.4380 C   0  0  1  0  0  0  0  0  0  0  0  0
  147.9000  178.7560  180.4140 O   0  0  0  0  0  0  0  0  0  0  0  0
  147.9960  178.4320  179.0540 C   0  0  0  0  0  0  0  0  0  0  0  0
  147.5540  179.2370  178.1920 O   0  0  0  0  0  0  0  0  0  0  0  0
  148.6090  177.1310  178.6200 C   0  0  1  0  0  0  0  0  0  0  0  0
  149.8180  176.9860  179.3130 O   0  0  0  0  0  0  0  0  0  0  0  0
  148.8010  176.0620  179.6720 C   0  0  2  0  0  0  0  0  0  0  0  0
  148.2320  172.1590  179.7230 C   0  0  1  0  0  0  0  0  0  0  0  0
  147.5650  171.0050  181.4720 H   0  0  0  0  0  0  0  0  0  0  0  0
  146.4570  169.2710  180.4340 H   0  0  0  0  0  0  0  0  0  0  0  0
  145.5290  170.3550  179.3810 H   0  0  0  0  0  0  0  0  0  0  0  0
  148.3120  169.2150  178.8600 H   0  0  0  0  0  0  0  0  0  0  0  0
  146.6560  172.4820  178.3400 H   0  0  0  0  0  0  0  0  0  0  0  0
  147.4400  174.2540  177.4010 H   0  0  0  0  0  0  0  0  0  0  0  0
  148.3690  173.2120  176.3280 H   0  0  0  0  0  0  0  0  0  0  0  0
  150.2420  173.2670  177.8770 H   0  0  0  0  0  0  0  0  0  0  0  0
  147.3530  174.0430  179.9310 H   0  0  0  0  0  0  0  0  0  0  0  0
  149.2900  173.3800  182.2080 H   0  0  0  0  0  0  0  0  0  0  0  0
  147.5220  173.4570  182.2550 H   0  0  0  0  0  0  0  0  0  0  0  0
  149.4950  175.6550  182.5070 H   0  0  0  0  0  0  0  0  0  0  0  0
  147.8220  175.5430  183.0500 H   0  0  0  0  0  0  0  0  0  0  0  0
  149.4780  177.9860  181.5080 H   0  0  0  0  0  0  0  0  0  0  0  0
  148.7220  176.9520  177.5390 H   0  0  0  0  0  0  0  0  0  0  0  0
  147.8240  178.3100  182.7770 C   0  0  0  0  0  0  0  0  0  0  0  0
  146.6070  178.9190  183.0030 C   0  0  0  0  0  0  0  0  0  0  0  0
  146.5320  179.1210  184.3640 C   0  0  0  0  0  0  0  0  0  0  0  0
  147.6210  178.6630  184.9400 O   0  0  0  0  0  0  0  0  0  0  0  0
  148.4160  178.1660  184.0200 C   0  0  0  0  0  0  0  0  0  0  0  0
  145.8610  179.1830  182.2630 H   0  0  0  0  0  0  0  0  0  0  0  0
  145.7090  179.5840  184.8930 H   0  0  0  0  0  0  0  0  0  0  0  0
  149.3800  177.7170  184.2250 H   0  0  0  0  0  0  0  0  0  0  0  0
  146.5270  170.9010  176.4080 C   0  0  0  0  0  0  0  0  0  0  0  0
  145.7760  170.0980  176.5600 H   0  0  0  0  0  0  0  0  0  0  0  0
  145.9800  171.8700  176.4590 H   0  0  0  0  0  0  0  0  0  0  0  0
  146.9390  170.7950  175.3820 H   0  0  0  0  0  0  0  0  0  0  0  0
  148.9750  170.4930  176.7150 C   0  0  0  0  0  0  0  0  0  0  0  0
  148.8080  169.7910  175.8700 H   0  0  0  0  0  0  0  0  0  0  0  0
  149.4770  171.3960  176.3230 H   0  0  0  0  0  0  0  0  0  0  0  0
  149.6990  169.9990  177.4010 H   0  0  0  0  0  0  0  0  0  0  0  0
  150.8050  174.5050  180.0460 C   0  0  0  0  0  0  0  0  0  0  0  0
  150.9440  175.0900  180.9680 H   0  0  0  0  0  0  0  0  0  0  0  0
  151.5500  174.8960  179.3270 H   0  0  0  0  0  0  0  0  0  0  0  0
  151.1260  173.4720  180.2700 H   0  0  0  0  0  0  0  0  0  0  0  0
  146.4910  176.2650  180.8290 C   0  0  0  0  0  0  0  0  0  0  0  0
  145.9300  177.0030  181.4380 H   0  0  0  0  0  0  0  0  0  0  0  0
  146.1850  176.4030  179.7760 H   0  0  0  0  0  0  0  0  0  0  0  0
  146.1060  175.2640  181.0970 H   0  0  0  0  0  0  0  0  0  0  0  0
  149.5990  171.4400  179.9570 C   0  0  0  0  0  0  0  0  0  0  0  0
  150.0140  170.9670  179.0540 H   0  0  0  0  0  0  0  0  0  0  0  0
  150.3800  172.0890  180.3750 H   0  0  0  0  0  0  0  0  0  0  0  0
  149.4850  170.5850  180.6490 H   0  0  0  0  0  0  0  0  0  0  0  0
  146.6370  168.6150  177.8780 O   0  0  0  0  0  0  0  0  0  0  0  0
  146.0440  169.0250  177.1930 H   0  0  0  0  0  0  0  0  0  0  0  0
  146.0140  172.2100  180.8030 O   0  0  0  0  0  0  0  0  0  0  0  0
  145.2410  172.1190  181.9660 C   0  0  0  0  0  0  0  0  0  0  0  0
  144.8770  170.9970  182.4190 O   0  0  0  0  0  0  0  0  0  0  0  0
  144.8610  173.3680  182.6890 C   0  0  0  0  0  0  0  0  0  0  0  0
  144.1920  173.1330  183.5440 H   0  0  0  0  0  0  0  0  0  0  0  0
  145.7760  173.8700  183.0730 H   0  0  0  0  0  0  0  0  0  0  0  0
  144.3350  174.0510  181.9890 H   0  0  0  0  0  0  0  0  0  0  0  0
  149.9560  175.1080  177.0540 O   0  0  0  0  0  0  0  0  0  0  0  0
  149.4690  175.3110  175.7570 C   0  0  0  0  0  0  0  0  0  0  0  0
  148.3950  175.9400  175.5590 O   0  0  0  0  0  0  0  0  0  0  0  0
  150.2670  174.8280  174.5940 C   0  0  0  0  0  0  0  0  0  0  0  0
  150.1810  173.7260  174.5160 H   0  0  0  0  0  0  0  0  0  0  0  0
  149.8940  175.2870  173.6540 H   0  0  0  0  0  0  0  0  0  0  0  0
  151.3330  175.1020  174.7370 H   0  0  0  0  0  0  0  0  0  0  0  0
  1 66  1  0  0  0  0
  1 21  1  1  0  0  0
  2 22  1  0  0  0  0
  2  1  1  0  0  0  0
  3 24  1  1  0  0  0
  3  2  1  0  0  0  0
  4  5  1  0  0  0  0
  4  3  1  0  0  0  0
  5 25  1  1  0  0  0
  5 20  1  0  0  0  0
  6 26  1  0  0  0  0
  6  7  1  0  0  0  0
  6  5  1  0  0  0  0
  7 28  1  6  0  0  0
  7  8  1  0  0  0  0
  8 19  1  0  0  0  0
  8 52  1  1  0  0  0
  8  9  1  0  0  0  0
  9 29  1  6  0  0  0
  9 10  1  0  0  0  0
 10 11  1  0  0  0  0
 10 30  1  0  0  0  0
 10 31  1  0  0  0  0
 11 32  1  0  0  0  0
 11 33  1  0  0  0  0
 12 56  1  6  0  0  0
 12 13  1  0  0  0  0
 12 11  1  0  0  0  0
 13 34  1  1  0  0  0
 13 36  1  0  0  0  0
 14 13  1  0  0  0  0
 15 14  1  0  0  0  0
 16 15  2  0  0  0  0
 17 35  1  6  0  0  0
 17 15  1  0  0  0  0
 17 18  1  0  0  0  0
 17 19  1  0  0  0  0
 19 18  1  1  0  0  0
 19 12  1  0  0  0  0
 20 60  1  1  0  0  0
 20  9  1  0  0  0  0
 20  1  1  0  0  0  0
 23  2  1  0  0  0  0
 27  6  1  0  0  0  0
 36 37  1  0  0  0  0
 36 40  2  0  0  0  0
 37 38  2  0  0  0  0
 38 42  1  0  0  0  0
 38 39  1  0  0  0  0
 40 43  1  0  0  0  0
 40 39  1  0  0  0  0
 41 37  1  0  0  0  0
 44 46  1  0  0  0  0
 44 45  1  0  0  0  0
 44  4  1  0  0  0  0
 47 44  1  0  0  0  0
 48 51  1  0  0  0  0
 48  4  1  0  0  0  0
 49 48  1  0  0  0  0
 50 48  1  0  0  0  0
 52 55  1  0  0  0  0
 52 53  1  0  0  0  0
 54 52  1  0  0  0  0
 56 59  1  0  0  0  0
 56 57  1  0  0  0  0
 58 56  1  0  0  0  0
 60 62  1  0  0  0  0
 60 63  1  0  0  0  0
 61 60  1  0  0  0  0
 64  3  1  0  0  0  0
 65 64  1  0  0  0  0
 66 67  1  0  0  0  0
 67 68  2  0  0  0  0
 67 69  1  0  0  0  0
 69 71  1  0  0  0  0
 69 70  1  0  0  0  0
 72 69  1  0  0  0  0
 73  7  1  0  0  0  0
 74 73  1  0  0  0  0
 75 74  2  0  0  0  0
 76 79  1  0  0  0  0
 76 74  1  0  0  0  0
 77 76  1  0  0  0  0
 78 76  1  0  0  0  0
M  END
>  <MODEL>
7

>  <REMARK>
 VINA RESULT:      -6.9      2.823      5.645
  Name = 3-Deacetylkhivorin
  13 active torsions:
  status: ('A' for Active; 'I' for Inactive)
    1  A    between atoms: C_1  and  C_2
    2  A    between atoms: C_2  and  O_4
    3  A    between atoms: O_4  and  C_5
    4  A    between atoms: C_7  and  O_8
    5  A    between atoms: C_9  and  C_10
    6  A    between atoms: C_9  and  C_11
    7  A    between atoms: C_14  and  O_15
    8  A    between atoms: O_15  and  C_16
    9  A    between atoms: C_16  and  C_17
   10  A    between atoms: C_19  and  C_20
   11  A    between atoms: C_24  and  C_25
   12  A    between atoms: C_26  and  C_27
   13  A    between atoms: C_38  and  C_39
                            x       y       z     vdW  Elec       q    Type
                         _______ _______ _______ _____ _____    ______ ____

>  <TORSDO>
F 13

>  <vina_affinity>
-6.9

>  <vina_rmsd_lb>
2.823

>  <vina_rmsd_ub>
5.645

$$$$
3-Deacetylkhivorin
 OpenBabel09062217423D

 79 84  0  0  1  0  0  0  0  0999 V2000
  149.1730  175.3880  177.7150 C   0  0  1  0  0  0  0  0  0  0  0  0
  148.7830  176.7340  177.0230 C   0  0  0  0  0  0  0  0  0  0  0  0
  147.9820  177.7450  177.8740 C   0  0  2  0  0  0  0  0  0  0  0  0
  146.6950  177.1150  178.5430 C   0  0  0  0  0  0  0  0  0  0  0  0
  146.9010  175.5660  178.7920 C   0  0  2  0  0  0  0  0  0  0  0  0
  145.8050  174.8180  179.6300 C   0  0  0  0  0  0  0  0  0  0  0  0
  146.3420  174.2110  180.9250 C   0  0  2  0  0  0  0  0  0  0  0  0
  147.5050  173.1620  180.6840 C   0  0  2  0  0  0  0  0  0  0  0  0
  148.3390  173.5670  179.4070 C   0  0  2  0  0  0  0  0  0  0  0  0
  149.6740  172.7640  179.3140 C   0  0  0  0  0  0  0  0  0  0  0  0
  149.5130  171.2470  179.6230 C   0  0  0  0  0  0  0  0  0  0  0  0
  148.0480  170.7150  179.5580 C   0  0  1  0  0  0  0  0  0  0  0  0
  147.9570  169.2530  180.1260 C   0  0  1  0  0  0  0  0  0  0  0  0
  146.6140  168.7790  179.9860 O   0  0  0  0  0  0  0  0  0  0  0  0
  145.5070  169.6110  180.1980 C   0  0  0  0  0  0  0  0  0  0  0  0
  144.3450  169.1490  180.0500 O   0  0  0  0  0  0  0  0  0  0  0  0
  145.6970  171.0500  180.5860 C   0  0  1  0  0  0  0  0  0  0  0  0
  146.6250  171.0810  181.6350 O   0  0  0  0  0  0  0  0  0  0  0  0
  147.0760  171.6470  180.4120 C   0  0  2  0  0  0  0  0  0  0  0  0
  148.3930  175.1100  179.0600 C   0  0  1  0  0  0  0  0  0  0  0  0
  150.2640  175.3970  177.9410 H   0  0  0  0  0  0  0  0  0  0  0  0
  149.7080  177.2270  176.6550 H   0  0  0  0  0  0  0  0  0  0  0  0
  148.1750  176.5160  176.1180 H   0  0  0  0  0  0  0  0  0  0  0  0
  148.6670  178.1390  178.6550 H   0  0  0  0  0  0  0  0  0  0  0  0
  146.6970  175.1320  177.7850 H   0  0  0  0  0  0  0  0  0  0  0  0
  145.3700  173.9840  179.0330 H   0  0  0  0  0  0  0  0  0  0  0  0
  144.9480  175.4760  179.8670 H   0  0  0  0  0  0  0  0  0  0  0  0
  146.7210  175.0870  181.4850 H   0  0  0  0  0  0  0  0  0  0  0  0
  147.7370  173.1900  178.5620 H   0  0  0  0  0  0  0  0  0  0  0  0
  150.4410  173.1840  179.9970 H   0  0  0  0  0  0  0  0  0  0  0  0
  150.1000  172.8520  178.2920 H   0  0  0  0  0  0  0  0  0  0  0  0
  149.9480  171.0200  180.6180 H   0  0  0  0  0  0  0  0  0  0  0  0
  150.1450  170.6830  178.9000 H   0  0  0  0  0  0  0  0  0  0  0  0
  148.2040  169.2760  181.2110 H   0  0  0  0  0  0  0  0  0  0  0  0
  144.7960  171.6460  180.8070 H   0  0  0  0  0  0  0  0  0  0  0  0
  148.9140  168.2640  179.5010 C   0  0  0  0  0  0  0  0  0  0  0  0
  150.2380  168.0810  179.8430 C   0  0  0  0  0  0  0  0  0  0  0  0
  150.7040  167.0760  179.0220 C   0  0  0  0  0  0  0  0  0  0  0  0
  149.7360  166.6630  178.2350 O   0  0  0  0  0  0  0  0  0  0  0  0
  148.6480  167.3500  178.4970 C   0  0  0  0  0  0  0  0  0  0  0  0
  150.7970  168.6140  180.6020 H   0  0  0  0  0  0  0  0  0  0  0  0
  151.7100  166.6780  179.0150 H   0  0  0  0  0  0  0  0  0  0  0  0
  147.6990  167.2050  177.9940 H   0  0  0  0  0  0  0  0  0  0  0  0
  145.4690  177.3010  177.6000 C   0  0  0  0  0  0  0  0  0  0  0  0
  145.7570  177.8060  176.6550 H   0  0  0  0  0  0  0  0  0  0  0  0
  145.0150  176.3230  177.3200 H   0  0  0  0  0  0  0  0  0  0  0  0
  144.6830  177.9140  178.0910 H   0  0  0  0  0  0  0  0  0  0  0  0
  146.3890  177.8920  179.8490 C   0  0  0  0  0  0  0  0  0  0  0  0
  145.7140  177.3280  180.5270 H   0  0  0  0  0  0  0  0  0  0  0  0
  147.3060  178.1530  180.4080 H   0  0  0  0  0  0  0  0  0  0  0  0
  145.8750  178.8510  179.6150 H   0  0  0  0  0  0  0  0  0  0  0  0
  148.3750  173.1990  181.9880 C   0  0  0  0  0  0  0  0  0  0  0  0
  149.4350  173.4430  181.8190 H   0  0  0  0  0  0  0  0  0  0  0  0
  148.3710  172.2130  182.4900 H   0  0  0  0  0  0  0  0  0  0  0  0
  147.9980  173.9140  182.7400 H   0  0  0  0  0  0  0  0  0  0  0  0
  147.5930  170.6980  178.0570 C   0  0  0  0  0  0  0  0  0  0  0  0
  146.6740  170.0940  177.9100 H   0  0  0  0  0  0  0  0  0  0  0  0
  147.3920  171.7100  177.6580 H   0  0  0  0  0  0  0  0  0  0  0  0
  148.3640  170.2860  177.3810 H   0  0  0  0  0  0  0  0  0  0  0  0
  149.1380  175.8630  180.2070 C   0  0  0  0  0  0  0  0  0  0  0  0
  150.1860  175.5510  180.3390 H   0  0  0  0  0  0  0  0  0  0  0  0
  149.1320  176.9560  180.1020 H   0  0  0  0  0  0  0  0  0  0  0  0
  148.6900  175.6320  181.1910 H   0  0  0  0  0  0  0  0  0  0  0  0
  147.6450  178.8350  177.0430 O   0  0  0  0  0  0  0  0  0  0  0  0
  148.4360  179.0320  176.4720 H   0  0  0  0  0  0  0  0  0  0  0  0
  148.9120  174.3420  176.7730 O   0  0  0  0  0  0  0  0  0  0  0  0
  149.9050  173.6860  176.0370 C   0  0  0  0  0  0  0  0  0  0  0  0
  151.0350  174.2180  175.8490 O   0  0  0  0  0  0  0  0  0  0  0  0
  149.6260  172.3270  175.4860 C   0  0  0  0  0  0  0  0  0  0  0  0
  150.3670  172.0680  174.6990 H   0  0  0  0  0  0  0  0  0  0  0  0
  149.6860  171.5730  176.3010 H   0  0  0  0  0  0  0  0  0  0  0  0
  148.6060  172.3120  175.0480 H   0  0  0  0  0  0  0  0  0  0  0  0
  145.2590  173.6850  181.6930 O   0  0  0  0  0  0  0  0  0  0  0  0
  144.8240  174.2010  182.9200 C   0  0  0  0  0  0  0  0  0  0  0  0
  143.8990  173.6420  183.5690 O   0  0  0  0  0  0  0  0  0  0  0  0
  145.5100  175.3940  183.4940 C   0  0  0  0  0  0  0  0  0  0  0  0
  146.5920  175.3500  183.2600 H   0  0  0  0  0  0  0  0  0  0  0  0
  145.0860  176.3270  183.0650 H   0  0  0  0  0  0  0  0  0  0  0  0
  145.3750  175.4040  184.5960 H   0  0  0  0  0  0  0  0  0  0  0  0
  1 21  1  1  0  0  0
  1 20  1  0  0  0  0
  2  1  1  0  0  0  0
  2  3  1  0  0  0  0
  3  4  1  0  0  0  0
  3 24  1  1  0  0  0
  4  5  1  0  0  0  0
  4 48  1  0  0  0  0
  5 25  1  6  0  0  0
  5 20  1  0  0  0  0
  5  6  1  0  0  0  0
  6 27  1  0  0  0  0
  6  7  1  0  0  0  0
  7 28  1  1  0  0  0
  7 73  1  0  0  0  0
  8  7  1  0  0  0  0
  8 52  1  1  0  0  0
  9 29  1  6  0  0  0
  9  8  1  0  0  0  0
 10  9  1  0  0  0  0
 10 11  1  0  0  0  0
 10 30  1  0  0  0  0
 11 32  1  0  0  0  0
 12 56  1  6  0  0  0
 12 11  1  0  0  0  0
 12 13  1  0  0  0  0
 12 19  1  0  0  0  0
 13 34  1  1  0  0  0
 14 13  1  0  0  0  0
 14 15  1  0  0  0  0
 15 17  1  0  0  0  0
 16 15  2  0  0  0  0
 17 35  1  1  0  0  0
 17 18  1  0  0  0  0
 19 17  1  0  0  0  0
 19  8  1  0  0  0  0
 19 18  1  1  0  0  0
 20  9  1  0  0  0  0
 20 60  1  1  0  0  0
 22  2  1  0  0  0  0
 23  2  1  0  0  0  0
 26  6  1  0  0  0  0
 31 10  1  0  0  0  0
 33 11  1  0  0  0  0
 36 37  1  0  0  0  0
 36 13  1  0  0  0  0
 37 41  1  0  0  0  0
 38 37  2  0  0  0  0
 39 40  1  0  0  0  0
 39 38  1  0  0  0  0
 40 36  2  0  0  0  0
 42 38  1  0  0  0  0
 43 40  1  0  0  0  0
 44 47  1  0  0  0  0
 44  4  1  0  0  0  0
 45 44  1  0  0  0  0
 46 44  1  0  0  0  0
 48 50  1  0  0  0  0
 48 49  1  0  0  0  0
 51 48  1  0  0  0  0
 52 54  1  0  0  0  0
 52 55  1  0  0  0  0
 53 52  1  0  0  0  0
 57 56  1  0  0  0  0
 58 56  1  0  0  0  0
 59 56  1  0  0  0  0
 60 61  1  0  0  0  0
 60 63  1  0  0  0  0
 62 60  1  0  0  0  0
 64  3  1  0  0  0  0
 65 64  1  0  0  0  0
 66  1  1  0  0  0  0
 67 66  1  0  0  0  0
 68 67  2  0  0  0  0
 69 67  1  0  0  0  0
 69 71  1  0  0  0  0
 70 69  1  0  0  0  0
 72 69  1  0  0  0  0
 73 74  1  0  0  0  0
 74 76  1  0  0  0  0
 74 75  2  0  0  0  0
 76 79  1  0  0  0  0
 77 76  1  0  0  0  0
 78 76  1  0  0  0  0
M  END
>  <MODEL>
8

>  <REMARK>
 VINA RESULT:      -6.9      2.729      6.040
  Name = 3-Deacetylkhivorin
  13 active torsions:
  status: ('A' for Active; 'I' for Inactive)
    1  A    between atoms: C_1  and  C_2
    2  A    between atoms: C_2  and  O_4
    3  A    between atoms: O_4  and  C_5
    4  A    between atoms: C_7  and  O_8
    5  A    between atoms: C_9  and  C_10
    6  A    between atoms: C_9  and  C_11
    7  A    between atoms: C_14  and  O_15
    8  A    between atoms: O_15  and  C_16
    9  A    between atoms: C_16  and  C_17
   10  A    between atoms: C_19  and  C_20
   11  A    between atoms: C_24  and  C_25
   12  A    between atoms: C_26  and  C_27
   13  A    between atoms: C_38  and  C_39
                            x       y       z     vdW  Elec       q    Type
                         _______ _______ _______ _____ _____    ______ ____

>  <TORSDO>
F 13

>  <vina_affinity>
-6.9

>  <vina_rmsd_lb>
2.729

>  <vina_rmsd_ub>
6.040

$$$$
3-Deacetylkhivorin
 OpenBabel09062217423D

 79 84  0  0  1  0  0  0  0  0999 V2000
  146.9970  170.7180  180.6370 C   0  0  1  0  0  0  0  0  0  0  0  0
  146.5940  169.2790  180.1790 C   0  0  0  0  0  0  0  0  0  0  0  0
  147.4510  168.6420  179.0630 C   0  0  2  0  0  0  0  0  0  0  0  0
  147.6060  169.5660  177.7900 C   0  0  0  0  0  0  0  0  0  0  0  0
  147.4980  171.0920  178.1950 C   0  0  2  0  0  0  0  0  0  0  0  0
  147.8280  172.1580  177.0910 C   0  0  0  0  0  0  0  0  0  0  0  0
  149.0190  173.0480  177.4450 C   0  0  2  0  0  0  0  0  0  0  0  0
  148.8100  173.8580  178.7910 C   0  0  2  0  0  0  0  0  0  0  0  0
  147.9190  173.0220  179.7890 C   0  0  2  0  0  0  0  0  0  0  0  0
  147.9540  173.6220  181.2300 C   0  0  0  0  0  0  0  0  0  0  0  0
  147.8210  175.1720  181.2640 C   0  0  0  0  0  0  0  0  0  0  0  0
  147.2700  175.8140  179.9540 C   0  0  1  0  0  0  0  0  0  0  0  0
  147.4100  177.3780  179.9940 C   0  0  1  0  0  0  0  0  0  0  0  0
  146.8330  177.9300  178.8060 O   0  0  0  0  0  0  0  0  0  0  0  0
  146.9730  177.3130  177.5570 C   0  0  0  0  0  0  0  0  0  0  0  0
  146.4350  177.8330  176.5440 O   0  0  0  0  0  0  0  0  0  0  0  0
  147.7460  176.0310  177.4190 C   0  0  1  0  0  0  0  0  0  0  0  0
  148.9620  176.2030  178.0940 O   0  0  0  0  0  0  0  0  0  0  0  0
  148.0690  175.2690  178.6850 C   0  0  2  0  0  0  0  0  0  0  0  0
  147.9970  171.4470  179.6560 C   0  0  1  0  0  0  0  0  0  0  0  0
  147.4760  170.6600  181.6420 H   0  0  0  0  0  0  0  0  0  0  0  0
  146.5980  168.6090  181.0640 H   0  0  0  0  0  0  0  0  0  0  0  0
  145.5440  169.2940  179.8150 H   0  0  0  0  0  0  0  0  0  0  0  0
  148.4490  168.4160  179.4970 H   0  0  0  0  0  0  0  0  0  0  0  0
  146.3960  171.2410  178.2780 H   0  0  0  0  0  0  0  0  0  0  0  0
  146.9530  172.8280  176.9330 H   0  0  0  0  0  0  0  0  0  0  0  0
  148.0080  171.6870  176.1060 H   0  0  0  0  0  0  0  0  0  0  0  0
  149.8560  172.3330  177.5490 H   0  0  0  0  0  0  0  0  0  0  0  0
  146.8860  173.2040  179.4450 H   0  0  0  0  0  0  0  0  0  0  0  0
  148.8860  173.3350  181.7600 H   0  0  0  0  0  0  0  0  0  0  0  0
  147.1220  173.2030  181.8360 H   0  0  0  0  0  0  0  0  0  0  0  0
  148.8010  175.6250  181.5180 H   0  0  0  0  0  0  0  0  0  0  0  0
  147.1540  175.4380  182.1170 H   0  0  0  0  0  0  0  0  0  0  0  0
  148.4930  177.6380  180.0060 H   0  0  0  0  0  0  0  0  0  0  0  0
  147.8840  175.6200  176.4070 H   0  0  0  0  0  0  0  0  0  0  0  0
  146.8080  178.0430  181.2100 C   0  0  0  0  0  0  0  0  0  0  0  0
  147.4810  178.4150  182.3550 C   0  0  0  0  0  0  0  0  0  0  0  0
  146.5360  178.9870  183.1790 C   0  0  0  0  0  0  0  0  0  0  0  0
  145.3650  178.9770  182.5830 O   0  0  0  0  0  0  0  0  0  0  0  0
  145.4910  178.4220  181.3990 C   0  0  0  0  0  0  0  0  0  0  0  0
  148.5360  178.2860  182.5640 H   0  0  0  0  0  0  0  0  0  0  0  0
  146.7150  179.3890  184.1680 H   0  0  0  0  0  0  0  0  0  0  0  0
  144.6770  178.2930  180.6970 H   0  0  0  0  0  0  0  0  0  0  0  0
  146.4720  169.2500  176.7700 C   0  0  0  0  0  0  0  0  0  0  0  0
  146.8590  168.6830  175.8970 H   0  0  0  0  0  0  0  0  0  0  0  0
  145.6690  168.6300  177.2290 H   0  0  0  0  0  0  0  0  0  0  0  0
  146.0090  170.1860  176.3920 H   0  0  0  0  0  0  0  0  0  0  0  0
  148.9520  169.2290  177.0970 C   0  0  0  0  0  0  0  0  0  0  0  0
  149.8210  169.6740  177.6260 H   0  0  0  0  0  0  0  0  0  0  0  0
  149.1180  168.1400  177.0070 H   0  0  0  0  0  0  0  0  0  0  0  0
  148.9650  169.6390  176.0620 H   0  0  0  0  0  0  0  0  0  0  0  0
  150.2520  174.1020  179.3560 C   0  0  0  0  0  0  0  0  0  0  0  0
  151.0350  173.4930  178.8780 H   0  0  0  0  0  0  0  0  0  0  0  0
  150.2980  173.8560  180.4340 H   0  0  0  0  0  0  0  0  0  0  0  0
  150.5750  175.1550  179.2810 H   0  0  0  0  0  0  0  0  0  0  0  0
  145.7490  175.4510  179.8260 C   0  0  0  0  0  0  0  0  0  0  0  0
  145.3990  174.8250  180.6730 H   0  0  0  0  0  0  0  0  0  0  0  0
  145.0970  176.3430  179.7820 H   0  0  0  0  0  0  0  0  0  0  0  0
  145.5190  174.8980  178.8970 H   0  0  0  0  0  0  0  0  0  0  0  0
  149.4420  170.9770  180.0130 C   0  0  0  0  0  0  0  0  0  0  0  0
  150.2360  171.6000  179.5710 H   0  0  0  0  0  0  0  0  0  0  0  0
  149.6390  170.9130  181.0910 H   0  0  0  0  0  0  0  0  0  0  0  0
  149.6520  169.9780  179.5870 H   0  0  0  0  0  0  0  0  0  0  0  0
  146.8670  167.4020  178.7270 O   0  0  0  0  0  0  0  0  0  0  0  0
  147.4700  166.6850  179.0610 H   0  0  0  0  0  0  0  0  0  0  0  0
  145.7870  171.4750  180.7540 O   0  0  0  0  0  0  0  0  0  0  0  0
  144.5120  170.9580  180.4990 C   0  0  0  0  0  0  0  0  0  0  0  0
  143.8640  170.3510  181.3980 O   0  0  0  0  0  0  0  0  0  0  0  0
  143.9040  171.1490  179.1500 C   0  0  0  0  0  0  0  0  0  0  0  0
  143.9650  172.2150  178.8430 H   0  0  0  0  0  0  0  0  0  0  0  0
  144.4460  170.5270  178.4040 H   0  0  0  0  0  0  0  0  0  0  0  0
  142.8380  170.8370  179.1810 H   0  0  0  0  0  0  0  0  0  0  0  0
  149.3420  173.8810  176.3300 O   0  0  0  0  0  0  0  0  0  0  0  0
  149.1600  173.5260  174.9880 C   0  0  0  0  0  0  0  0  0  0  0  0
  149.8650  172.6270  174.4530 O   0  0  0  0  0  0  0  0  0  0  0  0
  148.0750  174.1790  174.2010 C   0  0  0  0  0  0  0  0  0  0  0  0
  148.4460  174.4180  173.1840 H   0  0  0  0  0  0  0  0  0  0  0  0
  147.1990  173.5010  174.1160 H   0  0  0  0  0  0  0  0  0  0  0  0
  147.7650  175.1170  174.7060 H   0  0  0  0  0  0  0  0  0  0  0  0
  1 66  1  0  0  0  0
  1 21  1  1  0  0  0
  2  1  1  0  0  0  0
  2 22  1  0  0  0  0
  3 24  1  1  0  0  0
  3  2  1  0  0  0  0
  4  5  1  0  0  0  0
  4  3  1  0  0  0  0
  5 25  1  1  0  0  0
  5 20  1  0  0  0  0
  6  7  1  0  0  0  0
  6  5  1  0  0  0  0
  7 28  1  1  0  0  0
  7  8  1  0  0  0  0
  8 52  1  1  0  0  0
  8  9  1  0  0  0  0
  9 29  1  6  0  0  0
  9 10  1  0  0  0  0
 10 11  1  0  0  0  0
 10 30  1  0  0  0  0
 10 31  1  0  0  0  0
 11 32  1  0  0  0  0
 11 33  1  0  0  0  0
 12 56  1  6  0  0  0
 12 13  1  0  0  0  0
 12 11  1  0  0  0  0
 13 34  1  6  0  0  0
 13 36  1  0  0  0  0
 14 13  1  0  0  0  0
 15 14  1  0  0  0  0
 16 15  2  0  0  0  0
 17 35  1  6  0  0  0
 17 15  1  0  0  0  0
 17 18  1  0  0  0  0
 17 19  1  0  0  0  0
 19 18  1  1  0  0  0
 19  8  1  0  0  0  0
 19 12  1  0  0  0  0
 20  9  1  0  0  0  0
 20 60  1  1  0  0  0
 20  1  1  0  0  0  0
 23  2  1  0  0  0  0
 26  6  1  0  0  0  0
 27  6  1  0  0  0  0
 36 40  2  0  0  0  0
 36 37  1  0  0  0  0
 37 41  1  0  0  0  0
 37 38  2  0  0  0  0
 38 42  1  0  0  0  0
 39 38  1  0  0  0  0
 40 39  1  0  0  0  0
 43 40  1  0  0  0  0
 44 46  1  0  0  0  0
 44  4  1  0  0  0  0
 45 44  1  0  0  0  0
 47 44  1  0  0  0  0
 48 49  1  0  0  0  0
 48  4  1  0  0  0  0
 50 48  1  0  0  0  0
 51 48  1  0  0  0  0
 52 54  1  0  0  0  0
 53 52  1  0  0  0  0
 55 52  1  0  0  0  0
 56 57  1  0  0  0  0
 58 56  1  0  0  0  0
 59 56  1  0  0  0  0
 60 62  1  0  0  0  0
 61 60  1  0  0  0  0
 63 60  1  0  0  0  0
 64 65  1  0  0  0  0
 64  3  1  0  0  0  0
 67 66  1  0  0  0  0
 67 68  2  0  0  0  0
 69 72  1  0  0  0  0
 69 67  1  0  0  0  0
 70 69  1  0  0  0  0
 71 69  1  0  0  0  0
 73  7  1  0  0  0  0
 74 73  1  0  0  0  0
 75 74  2  0  0  0  0
 76 79  1  0  0  0  0
 76 74  1  0  0  0  0
 77 76  1  0  0  0  0
 78 76  1  0  0  0  0
M  END
>  <MODEL>
9

>  <REMARK>
 VINA RESULT:      -6.8      2.426      5.377
  Name = 3-Deacetylkhivorin
  13 active torsions:
  status: ('A' for Active; 'I' for Inactive)
    1  A    between atoms: C_1  and  C_2
    2  A    between atoms: C_2  and  O_4
    3  A    between atoms: O_4  and  C_5
    4  A    between atoms: C_7  and  O_8
    5  A    between atoms: C_9  and  C_10
    6  A    between atoms: C_9  and  C_11
    7  A    between atoms: C_14  and  O_15
    8  A    between atoms: O_15  and  C_16
    9  A    between atoms: C_16  and  C_17
   10  A    between atoms: C_19  and  C_20
   11  A    between atoms: C_24  and  C_25
   12  A    between atoms: C_26  and  C_27
   13  A    between atoms: C_38  and  C_39
                            x       y       z     vdW  Elec       q    Type
                         _______ _______ _______ _____ _____    ______ ____

>  <TORSDO>
F 13

>  <vina_affinity>
-6.8

>  <vina_rmsd_lb>
2.426

>  <vina_rmsd_ub>
5.377

$$$$
