EMPTY MOLECULE DESCRIBING GYPSUM-DL PARAMETERS
     RDKit          2D

  0  0  0  0  0  0  0  0  0  0999 V2000
M  END
>  <source>  (1) 
C:\Users\Korisnik\Documents\Training_school_git\Case Study 2\gedunin_khivorin_derivatives2.smi

>  <output_folder>  (1) 
./gypsum_dl_test_output_gedunin_khivorin_derivatives/

>  <separate_output_files>  (1) 
False

>  <add_pdb_output>  (1) 
False

>  <add_html_output>  (1) 
False

>  <num_processors>  (1) 
1

>  <start_time>  (1) 
0

>  <end_time>  (1) 
0

>  <run_time>  (1) 
0

>  <min_ph>  (1) 
7.0

>  <max_ph>  (1) 
8.0

>  <pka_precision>  (1) 
0.5

>  <thoroughness>  (1) 
2

>  <max_variants_per_compound>  (1) 
1

>  <second_embed>  (1) 
False

>  <2d_output_only>  (1) 
False

>  <skip_optimize_geometry>  (1) 
False

>  <skip_alternate_ring_conformations>  (1) 
False

>  <skip_adding_hydrogen>  (1) 
False

>  <skip_making_tautomers>  (1) 
True

>  <skip_enumerate_chiral_mol>  (1) 
False

>  <skip_enumerate_double_bonds>  (1) 
False

>  <let_tautomers_change_chirality>  (1) 
False

>  <use_durrant_lab_filters>  (1) 
False

>  <job_manager>  (1) 
serial

>  <cache_prerun>  (1) 
False

>  <test>  (1) 
False

>  <Parallelizer>  (1) 
<gypsum_dl.Parallelizer.Parallelizer object at 0x000001ED2B00C0D0>

$$$$
3alpha-ACETOXYDIHYDRODEOXYGEDUNIN
     RDKit          3D

 77 81  0  0  0  0  0  0  0  0999 V2000
    7.2577   -0.9171   -1.9984 C   0  0  0  0  0  0  0  0  0  0  0  0
    5.8510   -1.4034   -2.0790 C   0  0  0  0  0  0  0  0  0  0  0  0
    5.4836   -2.0900   -3.0709 O   0  0  0  0  0  0  0  0  0  0  0  0
    4.9715   -1.1391   -1.0233 O   0  0  0  0  0  0  0  0  0  0  0  0
    3.5998   -1.5488   -1.0094 C   0  0  2  0  0  0  0  0  0  0  0  0
    2.7750   -0.6378   -1.9145 C   0  0  0  0  0  0  0  0  0  0  0  0
    1.4191   -1.2777   -2.1584 C   0  0  0  0  0  0  0  0  0  0  0  0
    0.5860   -1.6294   -0.8628 C   0  0  1  0  0  0  0  0  0  0  0  0
   -0.0976   -2.9831   -1.2518 C   0  0  0  0  0  0  0  0  0  0  0  0
    1.4722   -1.8858    0.4515 C   0  0  2  0  0  0  0  0  0  0  0  0
    0.7722   -1.3761    1.7395 C   0  0  0  0  0  0  0  0  0  0  0  0
   -0.7364   -1.6459    1.7506 C   0  0  1  0  0  0  0  0  0  0  0  0
   -1.2281   -1.4012    3.0711 O   0  0  0  0  0  0  0  0  0  0  0  0
   -1.0586   -2.2772    4.1496 C   0  0  0  0  0  0  0  0  0  0  0  0
   -1.6008   -1.9041    5.4865 C   0  0  0  0  0  0  0  0  0  0  0  0
   -0.4887   -3.3916    3.9967 O   0  0  0  0  0  0  0  0  0  0  0  0
   -1.5060   -0.7865    0.6627 C   0  0  1  0  0  0  0  0  0  0  0  0
   -2.7480   -1.5982    0.1648 C   0  0  0  0  0  0  0  0  0  0  0  0
   -2.1110    0.5187    1.3013 C   0  0  0  0  0  0  0  0  0  0  0  0
   -3.0965    0.4069    2.2355 C   0  0  0  0  0  0  0  0  0  0  0  0
   -3.8124    1.5825    2.7442 C   0  0  0  0  0  0  0  0  0  0  0  0
   -4.5612    1.4900    3.7513 O   0  0  0  0  0  0  0  0  0  0  0  0
   -3.6631    2.8020    2.0946 O   0  0  0  0  0  0  0  0  0  0  0  0
   -2.9771    2.8629    0.8477 C   0  0  1  0  0  0  0  0  0  0  0  0
   -2.6953    4.3048    0.5075 C   0  0  0  0  0  0  0  0  0  0  0  0
   -2.3382    5.3129    1.3803 C   0  0  0  0  0  0  0  0  0  0  0  0
   -2.1662    6.4360    0.5981 C   0  0  0  0  0  0  0  0  0  0  0  0
   -2.3985    6.1415   -0.6615 O   0  0  0  0  0  0  0  0  0  0  0  0
   -2.7173    4.8709   -0.7514 C   0  0  0  0  0  0  0  0  0  0  0  0
   -1.6994    1.9478    0.8882 C   0  0  1  0  0  0  0  0  0  0  0  0
   -0.6985    2.4990    1.9401 C   0  0  0  0  0  0  0  0  0  0  0  0
   -1.0661    1.9472   -0.5122 C   0  0  0  0  0  0  0  0  0  0  0  0
    0.0223    0.9035   -0.6450 C   0  0  0  0  0  0  0  0  0  0  0  0
   -0.5565   -0.5289   -0.6110 C   0  0  1  0  0  0  0  0  0  0  0  0
    3.0366   -1.5373    0.4372 C   0  0  0  0  0  0  0  0  0  0  0  0
    3.8026   -2.6311    1.2333 C   0  0  0  0  0  0  0  0  0  0  0  0
    3.3857   -0.1839    1.1302 C   0  0  0  0  0  0  0  0  0  0  0  0
    7.3073   -0.0088   -1.3619 H   0  0  0  0  0  0  0  0  0  0  0  0
    7.8972   -1.7085   -1.5549 H   0  0  0  0  0  0  0  0  0  0  0  0
    7.6344   -0.6657   -3.0124 H   0  0  0  0  0  0  0  0  0  0  0  0
    3.5435   -2.5924   -1.3996 H   0  0  0  0  0  0  0  0  0  0  0  0
    2.6775    0.3820   -1.4986 H   0  0  0  0  0  0  0  0  0  0  0  0
    3.2854   -0.5270   -2.8956 H   0  0  0  0  0  0  0  0  0  0  0  0
    0.8285   -0.6513   -2.8595 H   0  0  0  0  0  0  0  0  0  0  0  0
    1.6381   -2.1823   -2.7715 H   0  0  0  0  0  0  0  0  0  0  0  0
   -0.7885   -2.8504   -2.1128 H   0  0  0  0  0  0  0  0  0  0  0  0
    0.6627   -3.7401   -1.5462 H   0  0  0  0  0  0  0  0  0  0  0  0
   -0.6410   -3.4649   -0.4243 H   0  0  0  0  0  0  0  0  0  0  0  0
    1.4534   -2.9901    0.5938 H   0  0  0  0  0  0  0  0  0  0  0  0
    0.9149   -0.2942    1.8862 H   0  0  0  0  0  0  0  0  0  0  0  0
    1.2379   -1.8744    2.6162 H   0  0  0  0  0  0  0  0  0  0  0  0
   -0.8900   -2.7244    1.5482 H   0  0  0  0  0  0  0  0  0  0  0  0
   -1.8458   -0.8213    5.5092 H   0  0  0  0  0  0  0  0  0  0  0  0
   -0.8474   -2.1191    6.2732 H   0  0  0  0  0  0  0  0  0  0  0  0
   -2.5221   -2.4890    5.6891 H   0  0  0  0  0  0  0  0  0  0  0  0
   -2.5107   -2.3898   -0.5610 H   0  0  0  0  0  0  0  0  0  0  0  0
   -3.2768   -2.0982    1.0027 H   0  0  0  0  0  0  0  0  0  0  0  0
   -3.4683   -0.9266   -0.3525 H   0  0  0  0  0  0  0  0  0  0  0  0
   -3.4319   -0.5539    2.5986 H   0  0  0  0  0  0  0  0  0  0  0  0
   -3.6707    2.4632    0.0730 H   0  0  0  0  0  0  0  0  0  0  0  0
   -2.2133    5.2403    2.4525 H   0  0  0  0  0  0  0  0  0  0  0  0
   -1.8821    7.4175    0.9531 H   0  0  0  0  0  0  0  0  0  0  0  0
   -2.9542    4.3633   -1.6772 H   0  0  0  0  0  0  0  0  0  0  0  0
   -0.2319    3.4449    1.5932 H   0  0  0  0  0  0  0  0  0  0  0  0
   -1.2037    2.6993    2.9081 H   0  0  0  0  0  0  0  0  0  0  0  0
    0.1156    1.7818    2.1511 H   0  0  0  0  0  0  0  0  0  0  0  0
   -1.8415    1.7593   -1.2888 H   0  0  0  0  0  0  0  0  0  0  0  0
   -0.6228    2.9436   -0.7315 H   0  0  0  0  0  0  0  0  0  0  0  0
    0.5034    1.1139   -1.6187 H   0  0  0  0  0  0  0  0  0  0  0  0
    0.7887    1.0548    0.1257 H   0  0  0  0  0  0  0  0  0  0  0  0
   -1.2075   -0.5609   -1.5158 H   0  0  0  0  0  0  0  0  0  0  0  0
    4.8928   -2.4156    1.2665 H   0  0  0  0  0  0  0  0  0  0  0  0
    3.4382   -2.6898    2.2806 H   0  0  0  0  0  0  0  0  0  0  0  0
    3.6716   -3.6319    0.7675 H   0  0  0  0  0  0  0  0  0  0  0  0
    4.4711    0.0392    1.0590 H   0  0  0  0  0  0  0  0  0  0  0  0
    2.8491    0.6724    0.6909 H   0  0  0  0  0  0  0  0  0  0  0  0
    3.1605   -0.2161    2.2173 H   0  0  0  0  0  0  0  0  0  0  0  0
  1  2  1  0
  2  3  2  0
  2  4  1  0
  4  5  1  0
  5  6  1  0
  6  7  1  0
  7  8  1  0
  8  9  1  6
  8 10  1  0
 10 11  1  0
 11 12  1  0
 12 13  1  0
 13 14  1  0
 14 15  1  0
 14 16  2  0
 12 17  1  0
 17 18  1  6
 17 19  1  0
 19 20  2  0
 20 21  1  0
 21 22  2  0
 21 23  1  0
 23 24  1  0
 24 25  1  0
 25 26  1  0
 26 27  2  0
 27 28  1  0
 28 29  1  0
 24 30  1  0
 30 31  1  1
 30 32  1  0
 32 33  1  0
 33 34  1  0
 10 35  1  0
 35 36  1  0
 35 37  1  0
 35  5  1  0
 34  8  1  0
 34 17  1  0
 30 19  1  0
 29 25  2  0
  1 38  1  0
  1 39  1  0
  1 40  1  0
  5 41  1  6
  6 42  1  0
  6 43  1  0
  7 44  1  0
  7 45  1  0
  9 46  1  0
  9 47  1  0
  9 48  1  0
 10 49  1  1
 11 50  1  0
 11 51  1  0
 12 52  1  6
 15 53  1  0
 15 54  1  0
 15 55  1  0
 18 56  1  0
 18 57  1  0
 18 58  1  0
 20 59  1  0
 24 60  1  6
 26 61  1  0
 27 62  1  0
 29 63  1  0
 31 64  1  0
 31 65  1  0
 31 66  1  0
 32 67  1  0
 32 68  1  0
 33 69  1  0
 33 70  1  0
 34 71  1  6
 36 72  1  0
 36 73  1  0
 36 74  1  0
 37 75  1  0
 37 76  1  0
 37 77  1  0
M  END
>  <UniqueID>  (2) 
1

>  <SMILES>  (2) 
CC(=O)O[C@@H]1CC[C@@]2(C)[C@H](C[C@@H](OC(C)=O)[C@@]3(C)C4=CC(=O)O[C@@H](c5ccoc5)[C@]4(C)CC[C@@H]23)C1(C)C

>  <Energy>  (2) 
152.5297458372918

>  <Genealogy>  (2) 
CC(=O)O[C@@H]1CC[C@@]2(C)[C@H](C[C@@H](OC(C)=O)[C@@]3(C)C4=CC(=O)O[C@@H](c5ccoc5)[C@]4(C)CC[C@@H]23)C1(C)C (chirality)
CC(=O)O[C@@H]1CC[C@@]2(C)[C@H](C[C@@H](OC(C)=O)[C@@]3(C)C4=CC(=O)O[C@@H](c5ccoc5)[C@]4(C)CC[C@@H]23)C1(C)C (3D coordinates assigned)
CC(=O)O[C@@H]1CC[C@@]2(C)[C@H](C[C@@H](OC(C)=O)[C@@]3(C)C4=CC(=O)O[C@@H](c5ccoc5)[C@]4(C)CC[C@@H]23)C1(C)C (nonaromatic ring conformer: 152.5297458372918 kcal/mol)

$$$$
KHIVORIN
     RDKit          3D

 84 89  0  0  0  0  0  0  0  0999 V2000
    1.3019    1.1910    5.4813 C   0  0  0  0  0  0  0  0  0  0  0  0
    2.0764    1.0499    4.2153 C   0  0  0  0  0  0  0  0  0  0  0  0
    3.3370    1.0344    4.2534 O   0  0  0  0  0  0  0  0  0  0  0  0
    1.3912    0.9986    2.9962 O   0  0  0  0  0  0  0  0  0  0  0  0
    2.0184    0.8836    1.7219 C   0  0  1  0  0  0  0  0  0  0  0  0
    2.6389   -0.5022    1.5118 C   0  0  0  0  0  0  0  0  0  0  0  0
    3.6313   -0.4707    0.3202 C   0  0  1  0  0  0  0  0  0  0  0  0
    3.9238   -1.8327   -0.0174 O   0  0  0  0  0  0  0  0  0  0  0  0
    5.2113   -2.3202   -0.2776 C   0  0  0  0  0  0  0  0  0  0  0  0
    5.3845   -3.7209   -0.7531 C   0  0  0  0  0  0  0  0  0  0  0  0
    6.2272   -1.5952   -0.1061 O   0  0  0  0  0  0  0  0  0  0  0  0
    3.1036    0.3570   -0.9357 C   0  0  0  0  0  0  0  0  0  0  0  0
    3.4123   -0.4125   -2.2525 C   0  0  0  0  0  0  0  0  0  0  0  0
    3.8548    1.7073   -1.0372 C   0  0  0  0  0  0  0  0  0  0  0  0
    1.5497    0.5658   -0.7971 C   0  0  2  0  0  0  0  0  0  0  0  0
    0.7769    0.9716   -2.0795 C   0  0  0  0  0  0  0  0  0  0  0  0
   -0.5978    1.6352   -1.8421 C   0  0  1  0  0  0  0  0  0  0  0  0
   -1.4046    1.5315   -3.0169 O   0  0  0  0  0  0  0  0  0  0  0  0
   -1.1634    2.2343   -4.2032 C   0  0  0  0  0  0  0  0  0  0  0  0
   -1.9677    1.9194   -5.4173 C   0  0  0  0  0  0  0  0  0  0  0  0
   -0.3068    3.1587   -4.2458 O   0  0  0  0  0  0  0  0  0  0  0  0
   -1.4119    1.2226   -0.5425 C   0  0  2  0  0  0  0  0  0  0  0  0
   -2.2980    2.4889   -0.2063 C   0  0  0  0  0  0  0  0  0  0  0  0
   -0.4620    0.8265    0.6611 C   0  0  2  0  0  0  0  0  0  0  0  0
   -1.2389    0.8497    2.0114 C   0  0  0  0  0  0  0  0  0  0  0  0
   -2.6768    0.2373    1.9048 C   0  0  0  0  0  0  0  0  0  0  0  0
   -2.9041   -0.7082    0.6717 C   0  0  1  0  0  0  0  0  0  0  0  0
   -2.0920   -2.0314    0.9081 C   0  0  0  0  0  0  0  0  0  0  0  0
   -4.4158   -1.0859    0.4899 C   0  0  2  0  0  0  0  0  0  0  0  0
   -5.0780   -1.6632    1.7189 C   0  0  0  0  0  0  0  0  0  0  0  0
   -5.2991   -2.9958    2.0062 C   0  0  0  0  0  0  0  0  0  0  0  0
   -5.9589   -3.0107    3.2181 C   0  0  0  0  0  0  0  0  0  0  0  0
   -6.1342   -1.7805    3.6445 O   0  0  0  0  0  0  0  0  0  0  0  0
   -5.6228   -0.9478    2.7677 C   0  0  0  0  0  0  0  0  0  0  0  0
   -4.5391   -2.0066   -0.6042 O   0  0  0  0  0  0  0  0  0  0  0  0
   -3.7595   -1.8960   -1.7685 C   0  0  0  0  0  0  0  0  0  0  0  0
   -3.8951   -2.7392   -2.6916 O   0  0  0  0  0  0  0  0  0  0  0  0
   -2.7755   -0.7688   -1.9193 C   0  0  1  0  0  0  0  0  0  0  0  0
   -3.4489    0.4010   -1.5589 O   0  0  0  0  0  0  0  0  0  0  0  0
   -2.4129   -0.0005   -0.6734 C   0  0  2  0  0  0  0  0  0  0  0  0
    1.0579    1.3080    0.5299 C   0  0  1  0  0  0  0  0  0  0  0  0
    1.1574    2.8674    0.4094 C   0  0  0  0  0  0  0  0  0  0  0  0
    1.9017    0.8275    6.3442 H   0  0  0  0  0  0  0  0  0  0  0  0
    1.0429    2.2589    5.6377 H   0  0  0  0  0  0  0  0  0  0  0  0
    0.3682    0.5953    5.4163 H   0  0  0  0  0  0  0  0  0  0  0  0
    2.8916    1.5676    1.7588 H   0  0  0  0  0  0  0  0  0  0  0  0
    3.1933   -0.8220    2.4202 H   0  0  0  0  0  0  0  0  0  0  0  0
    1.8375   -1.2552    1.3477 H   0  0  0  0  0  0  0  0  0  0  0  0
    4.5571    0.0116    0.7094 H   0  0  0  0  0  0  0  0  0  0  0  0
    4.3937   -4.1857   -0.9393 H   0  0  0  0  0  0  0  0  0  0  0  0
    5.9266   -4.3141    0.0119 H   0  0  0  0  0  0  0  0  0  0  0  0
    5.9641   -3.7249   -1.6995 H   0  0  0  0  0  0  0  0  0  0  0  0
    2.8485   -1.3699   -2.2959 H   0  0  0  0  0  0  0  0  0  0  0  0
    3.1440    0.1844   -3.1495 H   0  0  0  0  0  0  0  0  0  0  0  0
    4.4978   -0.6327   -2.3382 H   0  0  0  0  0  0  0  0  0  0  0  0
    3.4670    2.3204   -1.8763 H   0  0  0  0  0  0  0  0  0  0  0  0
    3.7849    2.3056   -0.1116 H   0  0  0  0  0  0  0  0  0  0  0  0
    4.9361    1.5297   -1.2189 H   0  0  0  0  0  0  0  0  0  0  0  0
    1.2347   -0.4988   -0.7110 H   0  0  0  0  0  0  0  0  0  0  0  0
    1.3931    1.6779   -2.6751 H   0  0  0  0  0  0  0  0  0  0  0  0
    0.6260    0.0716   -2.7200 H   0  0  0  0  0  0  0  0  0  0  0  0
   -0.3625    2.7170   -1.7360 H   0  0  0  0  0  0  0  0  0  0  0  0
   -2.6646    2.7560   -5.6319 H   0  0  0  0  0  0  0  0  0  0  0  0
   -2.5536    0.9919   -5.2520 H   0  0  0  0  0  0  0  0  0  0  0  0
   -1.2959    1.7697   -6.2857 H   0  0  0  0  0  0  0  0  0  0  0  0
   -3.3106    2.2358    0.1591 H   0  0  0  0  0  0  0  0  0  0  0  0
   -2.5089    3.1039   -1.1096 H   0  0  0  0  0  0  0  0  0  0  0  0
   -1.8548    3.1590    0.5495 H   0  0  0  0  0  0  0  0  0  0  0  0
   -0.3192   -0.2588    0.5771 H   0  0  0  0  0  0  0  0  0  0  0  0
   -0.7215    0.2163    2.7575 H   0  0  0  0  0  0  0  0  0  0  0  0
   -1.2842    1.8801    2.4206 H   0  0  0  0  0  0  0  0  0  0  0  0
   -2.8779   -0.3323    2.8405 H   0  0  0  0  0  0  0  0  0  0  0  0
   -3.4301    1.0485    1.9188 H   0  0  0  0  0  0  0  0  0  0  0  0
   -1.6771   -2.4341   -0.0391 H   0  0  0  0  0  0  0  0  0  0  0  0
   -1.2443   -1.9050    1.6132 H   0  0  0  0  0  0  0  0  0  0  0  0
   -2.7101   -2.8306    1.3575 H   0  0  0  0  0  0  0  0  0  0  0  0
   -4.9877   -0.1654    0.2389 H   0  0  0  0  0  0  0  0  0  0  0  0
   -5.0206   -3.8519    1.4054 H   0  0  0  0  0  0  0  0  0  0  0  0
   -6.2929   -3.8935    3.7472 H   0  0  0  0  0  0  0  0  0  0  0  0
   -5.6394    0.1294    2.8652 H   0  0  0  0  0  0  0  0  0  0  0  0
   -2.2060   -0.6601   -2.8611 H   0  0  0  0  0  0  0  0  0  0  0  0
    1.9164    3.3244    1.0794 H   0  0  0  0  0  0  0  0  0  0  0  0
    1.4487    3.1980   -0.6074 H   0  0  0  0  0  0  0  0  0  0  0  0
    0.2262    3.3709    0.7028 H   0  0  0  0  0  0  0  0  0  0  0  0
  1  2  1  0
  2  3  2  0
  2  4  1  0
  4  5  1  0
  5  6  1  0
  6  7  1  0
  7  8  1  0
  8  9  1  0
  9 10  1  0
  9 11  2  0
  7 12  1  0
 12 13  1  0
 12 14  1  0
 12 15  1  0
 15 16  1  0
 16 17  1  0
 17 18  1  0
 18 19  1  0
 19 20  1  0
 19 21  2  0
 17 22  1  0
 22 23  1  1
 22 24  1  0
 24 25  1  0
 25 26  1  0
 26 27  1  0
 27 28  1  1
 27 29  1  0
 29 30  1  0
 30 31  1  0
 31 32  2  0
 32 33  1  0
 33 34  1  0
 29 35  1  0
 35 36  1  0
 36 37  2  0
 36 38  1  0
 38 39  1  0
 40 39  1  6
 24 41  1  0
 41 42  1  6
 41  5  1  0
 41 15  1  0
 40 22  1  0
 40 27  1  0
 34 30  2  0
 40 38  1  0
  1 43  1  0
  1 44  1  0
  1 45  1  0
  5 46  1  1
  6 47  1  0
  6 48  1  0
  7 49  1  1
 10 50  1  0
 10 51  1  0
 10 52  1  0
 13 53  1  0
 13 54  1  0
 13 55  1  0
 14 56  1  0
 14 57  1  0
 14 58  1  0
 15 59  1  1
 16 60  1  0
 16 61  1  0
 17 62  1  1
 20 63  1  0
 20 64  1  0
 20 65  1  0
 23 66  1  0
 23 67  1  0
 23 68  1  0
 24 69  1  6
 25 70  1  0
 25 71  1  0
 26 72  1  0
 26 73  1  0
 28 74  1  0
 28 75  1  0
 28 76  1  0
 29 77  1  6
 31 78  1  0
 32 79  1  0
 34 80  1  0
 38 81  1  6
 42 82  1  0
 42 83  1  0
 42 84  1  0
M  END
>  <UniqueID>  (3) 
2

>  <SMILES>  (3) 
CC(=O)O[C@H]1C[C@@H](OC(C)=O)C(C)(C)[C@@H]2C[C@@H](OC(C)=O)[C@]3(C)[C@H](CC[C@@]4(C)[C@H](c5ccoc5)OC(=O)[C@H]5O[C@]543)[C@@]12C

>  <Energy>  (3) 
542.4427301315843

>  <Genealogy>  (3) 
CC(=O)O[C@H]1C[C@@H](OC(C)=O)C(C)(C)[C@@H]2C[C@@H](OC(C)=O)[C@]3(C)[C@H](CC[C@@]4(C)[C@H](c5ccoc5)OC(=O)[C@H]5O[C@]543)[C@@]12C (3D coordinates assigned)
CC(=O)O[C@H]1C[C@@H](OC(C)=O)C(C)(C)[C@@H]2C[C@@H](OC(C)=O)[C@]3(C)[C@H](CC[C@@]4(C)[C@H](c5ccoc5)OC(=O)[C@H]5O[C@]543)[C@@]12C (nonaromatic ring conformer: 542.4427301315843 kcal/mol)

$$$$
3-Deacetylkhivorin
     RDKit          3D

 79 84  0  0  0  0  0  0  0  0999 V2000
   -0.2306    3.6466    3.1880 C   0  0  0  0  0  0  0  0  0  0  0  0
    0.6674    3.4829    2.0081 C   0  0  0  0  0  0  0  0  0  0  0  0
    1.1212    4.5048    1.4187 O   0  0  0  0  0  0  0  0  0  0  0  0
    0.9768    2.1952    1.5579 O   0  0  0  0  0  0  0  0  0  0  0  0
    2.0181    1.9026    0.6190 C   0  0  1  0  0  0  0  0  0  0  0  0
    3.3677    1.9434    1.4045 C   0  0  0  0  0  0  0  0  0  0  0  0
    4.3733    0.8058    1.1158 C   0  0  1  0  0  0  0  0  0  0  0  0
    5.4680    0.9674    1.9918 O   0  0  0  0  0  0  0  0  0  0  0  0
    3.7390   -0.6361    1.2499 C   0  0  0  0  0  0  0  0  0  0  0  0
    3.9300   -1.1613    2.7038 C   0  0  0  0  0  0  0  0  0  0  0  0
    4.5080   -1.6013    0.3114 C   0  0  0  0  0  0  0  0  0  0  0  0
    2.1891   -0.5923    0.9366 C   0  0  2  0  0  0  0  0  0  0  0  0
    1.4353   -1.9640    0.8258 C   0  0  0  0  0  0  0  0  0  0  0  0
    0.8212   -2.2085   -0.5518 C   0  0  1  0  0  0  0  0  0  0  0  0
    0.2901   -3.5327   -0.6117 O   0  0  0  0  0  0  0  0  0  0  0  0
    0.3675   -4.3753   -1.7285 C   0  0  0  0  0  0  0  0  0  0  0  0
   -0.3389   -5.6882   -1.7020 C   0  0  0  0  0  0  0  0  0  0  0  0
    1.0654   -4.0622   -2.7300 O   0  0  0  0  0  0  0  0  0  0  0  0
   -0.2267   -1.0950   -0.9710 C   0  0  2  0  0  0  0  0  0  0  0  0
   -0.1972   -1.0659   -2.5384 C   0  0  0  0  0  0  0  0  0  0  0  0
    0.1860    0.2939   -0.3470 C   0  0  2  0  0  0  0  0  0  0  0  0
   -0.6161    1.4709   -0.9846 C   0  0  0  0  0  0  0  0  0  0  0  0
   -2.1347    1.1739   -1.1507 C   0  0  0  0  0  0  0  0  0  0  0  0
   -2.6669   -0.0219   -0.3041 C   0  0  1  0  0  0  0  0  0  0  0  0
   -2.6747    0.4035    1.2057 C   0  0  0  0  0  0  0  0  0  0  0  0
   -4.1318   -0.4001   -0.7257 C   0  0  2  0  0  0  0  0  0  0  0  0
   -5.1172    0.7455   -0.7109 C   0  0  0  0  0  0  0  0  0  0  0  0
   -5.3331    1.6509   -1.7303 C   0  0  0  0  0  0  0  0  0  0  0  0
   -6.3194    2.5006   -1.2768 C   0  0  0  0  0  0  0  0  0  0  0  0
   -6.6907    2.1435   -0.0680 O   0  0  0  0  0  0  0  0  0  0  0  0
   -5.9948    1.0920    0.3013 C   0  0  0  0  0  0  0  0  0  0  0  0
   -4.6065   -1.4539    0.1191 O   0  0  0  0  0  0  0  0  0  0  0  0
   -3.7750   -2.5034    0.5330 C   0  0  0  0  0  0  0  0  0  0  0  0
   -4.2367   -3.4002    1.2871 O   0  0  0  0  0  0  0  0  0  0  0  0
   -2.3378   -2.5576    0.0973 C   0  0  1  0  0  0  0  0  0  0  0  0
   -2.3135   -2.3418   -1.2871 O   0  0  0  0  0  0  0  0  0  0  0  0
   -1.7403   -1.3053   -0.5035 C   0  0  2  0  0  0  0  0  0  0  0  0
    1.7311    0.5225   -0.0916 C   0  0  1  0  0  0  0  0  0  0  0  0
    2.4776    0.5281   -1.4634 C   0  0  0  0  0  0  0  0  0  0  0  0
   -0.6785    4.6644    3.1983 H   0  0  0  0  0  0  0  0  0  0  0  0
   -1.0481    2.8944    3.1445 H   0  0  0  0  0  0  0  0  0  0  0  0
    0.3564    3.4964    4.1187 H   0  0  0  0  0  0  0  0  0  0  0  0
    2.0256    2.7004   -0.1600 H   0  0  0  0  0  0  0  0  0  0  0  0
    3.8633    2.9193    1.2138 H   0  0  0  0  0  0  0  0  0  0  0  0
    3.1552    1.9198    2.4956 H   0  0  0  0  0  0  0  0  0  0  0  0
    4.7627    0.9597    0.0867 H   0  0  0  0  0  0  0  0  0  0  0  0
    6.2450    0.4933    1.5915 H   0  0  0  0  0  0  0  0  0  0  0  0
    3.4194   -2.1346    2.8542 H   0  0  0  0  0  0  0  0  0  0  0  0
    5.0058   -1.3185    2.9451 H   0  0  0  0  0  0  0  0  0  0  0  0
    3.5173   -0.4398    3.4414 H   0  0  0  0  0  0  0  0  0  0  0  0
    4.1635   -2.6525    0.4122 H   0  0  0  0  0  0  0  0  0  0  0  0
    4.4269   -1.3077   -0.7518 H   0  0  0  0  0  0  0  0  0  0  0  0
    5.5929   -1.5966    0.5600 H   0  0  0  0  0  0  0  0  0  0  0  0
    1.7600   -0.2186    1.8974 H   0  0  0  0  0  0  0  0  0  0  0  0
    0.6047   -2.0057    1.5674 H   0  0  0  0  0  0  0  0  0  0  0  0
    2.0925   -2.8164    1.0852 H   0  0  0  0  0  0  0  0  0  0  0  0
    1.6932   -2.1936   -1.2319 H   0  0  0  0  0  0  0  0  0  0  0  0
   -1.2905   -5.5881   -1.1423 H   0  0  0  0  0  0  0  0  0  0  0  0
   -0.5630   -6.0261   -2.7355 H   0  0  0  0  0  0  0  0  0  0  0  0
    0.3022   -6.4427   -1.2014 H   0  0  0  0  0  0  0  0  0  0  0  0
   -0.8216   -0.2799   -2.9894 H   0  0  0  0  0  0  0  0  0  0  0  0
   -0.5700   -2.0212   -2.9550 H   0  0  0  0  0  0  0  0  0  0  0  0
    0.8201   -0.9423   -2.9505 H   0  0  0  0  0  0  0  0  0  0  0  0
   -0.1863    0.2443    0.6908 H   0  0  0  0  0  0  0  0  0  0  0  0
   -0.2003    1.7485   -1.9756 H   0  0  0  0  0  0  0  0  0  0  0  0
   -0.5221    2.3809   -0.3542 H   0  0  0  0  0  0  0  0  0  0  0  0
   -2.3673    1.0049   -2.2222 H   0  0  0  0  0  0  0  0  0  0  0  0
   -2.6942    2.0995   -0.8804 H   0  0  0  0  0  0  0  0  0  0  0  0
   -2.4144   -0.4409    1.8761 H   0  0  0  0  0  0  0  0  0  0  0  0
   -1.9714    1.2293    1.4232 H   0  0  0  0  0  0  0  0  0  0  0  0
   -3.6567    0.7895    1.5361 H   0  0  0  0  0  0  0  0  0  0  0  0
   -4.1154   -0.7767   -1.7732 H   0  0  0  0  0  0  0  0  0  0  0  0
   -4.8332    1.6859   -2.6898 H   0  0  0  0  0  0  0  0  0  0  0  0
   -6.7339    3.3393   -1.8207 H   0  0  0  0  0  0  0  0  0  0  0  0
   -6.1083    0.5898    1.2536 H   0  0  0  0  0  0  0  0  0  0  0  0
   -1.7435   -3.4372    0.3939 H   0  0  0  0  0  0  0  0  0  0  0  0
    3.3945    1.1387   -1.4690 H   0  0  0  0  0  0  0  0  0  0  0  0
    2.7482   -0.4714   -1.8298 H   0  0  0  0  0  0  0  0  0  0  0  0
    1.8631    1.0053   -2.2492 H   0  0  0  0  0  0  0  0  0  0  0  0
  1  2  1  0
  2  3  2  0
  2  4  1  0
  4  5  1  0
  5  6  1  0
  6  7  1  0
  7  8  1  0
  7  9  1  0
  9 10  1  0
  9 11  1  0
  9 12  1  0
 12 13  1  0
 13 14  1  0
 14 15  1  0
 15 16  1  0
 16 17  1  0
 16 18  2  0
 14 19  1  0
 19 20  1  6
 19 21  1  0
 21 22  1  0
 22 23  1  0
 23 24  1  0
 24 25  1  1
 24 26  1  0
 26 27  1  0
 27 28  1  0
 28 29  2  0
 29 30  1  0
 30 31  1  0
 26 32  1  0
 32 33  1  0
 33 34  2  0
 33 35  1  0
 35 36  1  0
 37 36  1  6
 21 38  1  0
 38 39  1  6
 38  5  1  0
 38 12  1  0
 37 19  1  0
 37 24  1  0
 31 27  2  0
 37 35  1  0
  1 40  1  0
  1 41  1  0
  1 42  1  0
  5 43  1  6
  6 44  1  0
  6 45  1  0
  7 46  1  6
  8 47  1  0
 10 48  1  0
 10 49  1  0
 10 50  1  0
 11 51  1  0
 11 52  1  0
 11 53  1  0
 12 54  1  1
 13 55  1  0
 13 56  1  0
 14 57  1  6
 17 58  1  0
 17 59  1  0
 17 60  1  0
 20 61  1  0
 20 62  1  0
 20 63  1  0
 21 64  1  1
 22 65  1  0
 22 66  1  0
 23 67  1  0
 23 68  1  0
 25 69  1  0
 25 70  1  0
 25 71  1  0
 26 72  1  6
 28 73  1  0
 29 74  1  0
 31 75  1  0
 35 76  1  6
 39 77  1  0
 39 78  1  0
 39 79  1  0
M  END
>  <UniqueID>  (4) 
3

>  <SMILES>  (4) 
CC(=O)O[C@H]1C[C@@H](O)C(C)(C)[C@@H]2C[C@@H](OC(C)=O)[C@]3(C)[C@H](CC[C@@]4(C)[C@H](c5ccoc5)OC(=O)[C@H]5O[C@]543)[C@@]12C

>  <Energy>  (4) 
518.8081868785065

>  <Genealogy>  (4) 
CC(=O)O[C@H]1C[C@@H](O)C(C)(C)[C@@H]2C[C@@H](OC(C)=O)[C@]3(C)[C@H](CC[C@@]4(C)[C@H](c5ccoc5)OC(=O)[C@H]5O[C@]543)[C@@]12C (3D coordinates assigned)
CC(=O)O[C@H]1C[C@@H](O)C(C)(C)[C@@H]2C[C@@H](OC(C)=O)[C@]3(C)[C@H](CC[C@@]4(C)[C@H](c5ccoc5)OC(=O)[C@H]5O[C@]543)[C@@]12C (nonaromatic ring conformer: 518.8081868785065 kcal/mol)

$$$$
