referent_ligand
  DSViewer          3D                             0

 28 31  0  0  0  0  0  0  0  0999 V2000
  147.9920  173.0110  173.7530 C   0  0  1  0  0  0
  146.2420  171.2740  173.4840 C   0  0
  148.2340  171.3780  177.3940 C   0  0
  146.8540  170.6200  177.3360 C   0  0
  146.3590  170.3290  175.9360 C   0  0
  149.3040  170.4840  177.5050 O   0  0
  148.0500  171.9020  174.8910 C   0  0  2  0  0  0
  148.4870  172.3930  176.2560 C   0  0
  146.7280  169.3740  178.2200 C   0  0
  144.8930  169.8970  176.0120 C   0  0
  148.8830  170.6720  174.4930 C   0  0
  144.6200  168.7270  176.9680 C   0  0
  145.2850  168.9550  178.2800 C   0  0
  147.6510  171.7860  171.4380 C   0  0
  147.5100  168.1440  177.6820 C   0  0
  147.2410  169.6130  179.6180 C   0  0
  144.8270  168.3190  179.3610 C   0  0
  146.6200  171.4580  174.9490 C   0  0  1  0  0  0
  146.8980  168.7970  180.6080 C   0  0
  145.7410  167.8990  180.4370 C   0  0
  147.0120  172.3580  172.7070 C   0  0  2  0  0  0
  147.3280  174.1540  174.1910 O   0  0
  145.5710  166.8950  181.1150 O   0  0
  145.5780  171.8300  177.9760 ?   0  0
  149.3120  173.6140  173.1640 C   0  0
  149.9720  172.9380  172.3870 O   0  0
  149.8180  175.0140  173.4670 C   0  0
  150.5680  175.0680  174.6310 O   0  0
  1  7  1  0  0  0
  1 21  1  0  0  0
  1 22  1  0  0  0
  1 25  1  0  0  0
  2 18  1  0  0  0
  2 21  1  0  0  0
  3  4  1  0  0  0
  3  6  1  0  0  0
  3  8  1  0  0  0
  4  5  1  0  0  0
  4  9  1  0  0  0
  5 10  1  0  0  0
  5 18  1  0  0  0
  7  8  1  0  0  0
  7 11  1  0  0  0
  7 18  1  0  0  0
  9 13  1  0  0  0
  9 15  1  0  0  0
  9 16  1  0  0  0
 10 12  1  0  0  0
 12 13  1  0  0  0
 13 17  2  0  0  0
 14 21  1  0  0  0
 16 19  2  0  0  0
 17 20  1  0  0  0
 19 20  1  0  0  0
 20 23  2  0  0  0
 25 26  2  0  0  0
 25 27  1  0  0  0
 27 28  1  0  0  0
  4 24  1  0  0  0
M  END
$$$$
