obj01
  PyMOL2.1          3D                             0

 28 31  0  0  0  0  0  0  0  0999 V2000
  147.9693  173.0616  173.5512 C   0  0  0  0  0  0  0  0  0  0  0  0
  148.5136  170.8386  174.5079 C   0  0  0  0  0  0  0  0  0  0  0  0
  146.6102  173.6801  177.2591 C   0  0  0  0  0  0  0  0  0  0  0  0
  146.5587  172.1625  177.6805 C   0  0  0  0  0  0  0  0  0  0  0  0
  147.4847  171.2625  176.8909 C   0  0  0  0  0  0  0  0  0  0  0  0
  147.5181  174.3975  178.0450 O   0  0  0  0  0  0  0  0  0  0  0  0
  147.9059  173.0467  175.1398 C   0  0  0  0  0  0  0  0  0  0  0  0
  146.8575  173.9487  175.7572 C   0  0  0  0  0  0  0  0  0  0  0  0
  146.6769  171.8717  179.1804 C   0  0  0  0  0  0  0  0  0  0  0  0
  147.1071  169.8058  177.1641 C   0  0  0  0  0  0  0  0  0  0  0  0
  149.2693  173.3112  175.8004 C   0  0  0  0  0  0  0  0  0  0  0  0
  147.0698  169.4227  178.6505 C   0  0  0  0  0  0  0  0  0  0  0  0
  146.3119  170.4353  179.4354 C   0  0  0  0  0  0  0  0  0  0  0  0
  148.5298  174.3102  172.7904 C   0  0  0  0  0  0  0  0  0  0  0  0
  150.1513  171.7715  172.8100 C   0  0  0  0  0  0  0  0  0  0  0  0
  148.1150  172.0538  179.7410 C   0  0  0  0  0  0  0  0  0  0  0  0
  145.7923  172.7701  180.0071 C   0  0  0  0  0  0  0  0  0  0  0  0
  145.7866  170.0865  180.6121 C   0  0  0  0  0  0  0  0  0  0  0  0
  147.5623  171.6136  175.4111 C   0  0  0  0  0  0  0  0  0  0  0  0
  148.7860  175.6600  173.4402 C   0  0  0  0  0  0  0  0  0  0  0  0
  145.4859  172.4456  181.2578 C   0  0  0  0  0  0  0  0  0  0  0  0
  145.6867  171.0582  181.7149 C   0  0  0  0  0  0  0  0  0  0  0  0
  148.6827  171.6926  173.2364 C   0  0  0  0  0  0  0  0  0  0  0  0
  146.7007  172.9340  172.9909 O   0  0  0  0  0  0  0  0  0  0  0  0
  148.7533  174.2178  171.5916 O   0  0  0  0  0  0  0  0  0  0  0  0
  147.8039  176.5899  173.1378 O   0  0  0  0  0  0  0  0  0  0  0  0
  145.7786  170.7521  182.8958 O   0  0  0  0  0  0  0  0  0  0  0  0
  144.8647  171.5489  177.1744 Cl  0  0  0  0  0  0  0  0  0  0  0  0
  1  7  1  0  0  0  0
  1 14  1  0  0  0  0
  1 23  1  0  0  0  0
  1 24  1  0  0  0  0
  2 19  1  0  0  0  0
  2 23  1  0  0  0  0
  3  4  1  0  0  0  0
  3  6  1  0  0  0  0
  3  8  1  0  0  0  0
  4  5  1  0  0  0  0
  4  9  1  0  0  0  0
  4 28  1  0  0  0  0
  5 10  1  0  0  0  0
  5 19  1  0  0  0  0
  7  8  1  0  0  0  0
  7 11  1  0  0  0  0
  7 19  1  0  0  0  0
  9 13  1  0  0  0  0
  9 16  1  0  0  0  0
  9 17  1  0  0  0  0
 10 12  1  0  0  0  0
 12 13  1  0  0  0  0
 13 18  1  0  0  0  0
 14 20  1  0  0  0  0
 14 25  2  0  0  0  0
 15 23  1  0  0  0  0
 17 21  1  0  0  0  0
 18 22  1  0  0  0  0
 20 26  1  0  0  0  0
 21 22  1  0  0  0  0
 22 27  2  0  0  0  0
M  END
$$$$
