PREDNISOLONE
 OpenBabel09042222203D

 54 57  0  0  1  0  0  0  0  0999 V2000
   91.7240  118.6150  115.4480 C   0  0  1  0  0  0  0  0  0  0  0  0
   92.9190  118.9610  114.4910 C   0  0  0  0  0  0  0  0  0  0  0  0
   93.3000  120.4670  114.3760 C   0  0  1  0  0  0  0  0  0  0  0  0
   93.2400  121.3190  115.7260 C   0  0  1  0  0  0  0  0  0  0  0  0
   92.4130  120.6110  116.8490 C   0  0  1  0  0  0  0  0  0  0  0  0
   91.9810  121.6330  117.9030 C   0  0  0  0  0  0  0  0  0  0  0  0
   93.2220  122.1910  118.6010 C   0  0  0  0  0  0  0  0  0  0  0  0
   94.2330  122.7330  117.6100 C   0  0  0  0  0  0  0  0  0  0  0  0
   94.9770  123.7880  117.9880 C   0  0  0  0  0  0  0  0  0  0  0  0
   95.9180  124.4060  117.0520 C   0  0  0  0  0  0  0  0  0  0  0  0
   96.6860  125.3280  117.4330 O   0  0  0  0  0  0  0  0  0  0  0  0
   95.8900  123.9980  115.6500 C   0  0  0  0  0  0  0  0  0  0  0  0
   95.1710  122.9340  115.2800 C   0  0  0  0  0  0  0  0  0  0  0  0
   94.5600  121.9640  116.3030 C   0  0  2  0  0  0  0  0  0  0  0  0
   91.2430  119.8840  116.1730 C   0  0  2  0  0  0  0  0  0  0  0  0
   89.9970  119.4530  116.9290 C   0  0  0  0  0  0  0  0  0  0  0  0
   89.3500  118.4120  115.9860 C   0  0  0  0  0  0  0  0  0  0  0  0
   90.3590  118.1620  114.8160 C   0  0  1  0  0  0  0  0  0  0  0  0
   92.7450  118.5410  113.4790 H   0  0  0  0  0  0  0  0  0  0  0  0
   93.8440  118.4450  114.8320 H   0  0  0  0  0  0  0  0  0  0  0  0
   92.5370  120.9140  113.6920 H   0  0  0  0  0  0  0  0  0  0  0  0
   92.6310  122.2090  115.4380 H   0  0  0  0  0  0  0  0  0  0  0  0
   93.0450  119.8780  117.3760 H   0  0  0  0  0  0  0  0  0  0  0  0
   91.3960  122.4580  117.4390 H   0  0  0  0  0  0  0  0  0  0  0  0
   91.3410  121.1460  118.6690 H   0  0  0  0  0  0  0  0  0  0  0  0
   92.8880  122.9860  119.3040 H   0  0  0  0  0  0  0  0  0  0  0  0
   93.7050  121.3920  119.2040 H   0  0  0  0  0  0  0  0  0  0  0  0
   94.8460  124.2400  118.9650 H   0  0  0  0  0  0  0  0  0  0  0  0
   96.3900  124.6010  114.9020 H   0  0  0  0  0  0  0  0  0  0  0  0
   95.1130  122.7430  114.2210 H   0  0  0  0  0  0  0  0  0  0  0  0
   90.8430  120.6110  115.4220 H   0  0  0  0  0  0  0  0  0  0  0  0
   90.2610  119.0000  117.9090 H   0  0  0  0  0  0  0  0  0  0  0  0
   89.3140  120.3150  117.1030 H   0  0  0  0  0  0  0  0  0  0  0  0
   89.1340  117.4910  116.5690 H   0  0  0  0  0  0  0  0  0  0  0  0
   88.3800  118.7920  115.5980 H   0  0  0  0  0  0  0  0  0  0  0  0
   92.2400  117.5070  116.4380 C   0  0  0  0  0  0  0  0  0  0  0  0
   93.2200  117.7500  116.8910 H   0  0  0  0  0  0  0  0  0  0  0  0
   92.4100  116.5580  115.8860 H   0  0  0  0  0  0  0  0  0  0  0  0
   91.5330  117.2900  117.2620 H   0  0  0  0  0  0  0  0  0  0  0  0
   95.6150  120.8880  116.6410 C   0  0  0  0  0  0  0  0  0  0  0  0
   96.4270  121.2970  117.2770 H   0  0  0  0  0  0  0  0  0  0  0  0
   95.1710  120.0210  117.1670 H   0  0  0  0  0  0  0  0  0  0  0  0
   96.0890  120.5070  115.7110 H   0  0  0  0  0  0  0  0  0  0  0  0
   94.5490  120.5570  113.7440 O   0  0  0  0  0  0  0  0  0  0  0  0
   94.4160  121.0470  112.8910 H   0  0  0  0  0  0  0  0  0  0  0  0
   89.9690  119.0240  113.7640 O   0  0  0  0  0  0  0  0  0  0  0  0
   89.4590  119.7860  114.1350 H   0  0  0  0  0  0  0  0  0  0  0  0
   90.3230  116.7040  114.3360 C   0  0  0  0  0  0  0  0  0  0  0  0
   90.1540  115.8000  115.1430 O   0  0  0  0  0  0  0  0  0  0  0  0
   90.4760  116.3550  112.8760 C   0  0  0  0  0  0  0  0  0  0  0  0
   91.3100  116.9510  112.4450 H   0  0  0  0  0  0  0  0  0  0  0  0
   90.7120  115.2720  112.7840 H   0  0  0  0  0  0  0  0  0  0  0  0
   89.2950  116.6320  112.1730 O   0  0  0  0  0  0  0  0  0  0  0  0
   88.7650  115.7930  112.1830 H   0  0  0  0  0  0  0  0  0  0  0  0
  1 15  1  0  0  0  0
  1 36  1  1  0  0  0
  2 20  1  0  0  0  0
  2  1  1  0  0  0  0
  3 21  1  6  0  0  0
  3  2  1  0  0  0  0
  3  4  1  0  0  0  0
  4 22  1  6  0  0  0
  4 14  1  0  0  0  0
  4  5  1  0  0  0  0
  5 23  1  1  0  0  0
  5  6  1  0  0  0  0
  6  7  1  0  0  0  0
  6 25  1  0  0  0  0
  7 27  1  0  0  0  0
  7 26  1  0  0  0  0
  8  9  2  0  0  0  0
  8  7  1  0  0  0  0
  9 28  1  0  0  0  0
 10 11  2  0  0  0  0
 10  9  1  0  0  0  0
 12 10  1  0  0  0  0
 13 12  2  0  0  0  0
 13 14  1  0  0  0  0
 14 40  1  1  0  0  0
 14  8  1  0  0  0  0
 15 31  1  6  0  0  0
 15  5  1  0  0  0  0
 15 16  1  0  0  0  0
 16 33  1  0  0  0  0
 16 32  1  0  0  0  0
 17 34  1  0  0  0  0
 17 16  1  0  0  0  0
 18 46  1  6  0  0  0
 18  1  1  0  0  0  0
 18 17  1  0  0  0  0
 19  2  1  0  0  0  0
 24  6  1  0  0  0  0
 29 12  1  0  0  0  0
 30 13  1  0  0  0  0
 35 17  1  0  0  0  0
 36 37  1  0  0  0  0
 36 39  1  0  0  0  0
 38 36  1  0  0  0  0
 40 42  1  0  0  0  0
 40 41  1  0  0  0  0
 43 40  1  0  0  0  0
 44  3  1  0  0  0  0
 45 44  1  0  0  0  0
 46 47  1  0  0  0  0
 48 18  1  0  0  0  0
 48 49  2  0  0  0  0
 50 48  1  0  0  0  0
 51 50  1  0  0  0  0
 52 50  1  0  0  0  0
 53 54  1  0  0  0  0
 53 50  1  0  0  0  0
M  END
>  <MODEL>
1

>  <REMARK>
 VINA RESULT:      -9.4      0.000      0.000
  Name = PREDNISOLONE
  7 active torsions:
  status: ('A' for Active; 'I' for Inactive)
    1  A    between atoms: C_1  and  C_2
    2  A    between atoms: C_4  and  O_5
    3  A    between atoms: C_16  and  C_17
    4  A    between atoms: C_21  and  O_22
    5  A    between atoms: C_21  and  C_23
    6  A    between atoms: C_23  and  C_25
    7  A    between atoms: C_25  and  O_26
                            x       y       z     vdW  Elec       q    Type
                         _______ _______ _______ _____ _____    ______ ____

>  <TORSDO>
F 7

>  <vina_affinity>
-9.4

>  <vina_rmsd_lb>
0.000

>  <vina_rmsd_ub>
0.000

$$$$
PREDNISOLONE
 OpenBabel09042222203D

 54 57  0  0  1  0  0  0  0  0999 V2000
   92.3590  121.6960  116.1540 C   0  0  1  0  0  0  0  0  0  0  0  0
   91.2160  122.3870  115.3310 C   0  0  0  0  0  0  0  0  0  0  0  0
   91.0030  121.8730  113.8750 C   0  0  1  0  0  0  0  0  0  0  0  0
   91.1470  120.2970  113.6520 C   0  0  1  0  0  0  0  0  0  0  0  0
   91.8830  119.5860  114.8340 C   0  0  1  0  0  0  0  0  0  0  0  0
   92.4170  118.2270  114.3750 C   0  0  0  0  0  0  0  0  0  0  0  0
   91.2390  117.3170  114.0210 C   0  0  0  0  0  0  0  0  0  0  0  0
   90.3020  117.9680  113.0240 C   0  0  0  0  0  0  0  0  0  0  0  0
   89.6750  117.1700  112.1410 C   0  0  0  0  0  0  0  0  0  0  0  0
   88.8140  117.7420  111.1040 C   0  0  0  0  0  0  0  0  0  0  0  0
   88.1490  116.9940  110.3410 O   0  0  0  0  0  0  0  0  0  0  0  0
   88.8070  119.1910  110.9120 C   0  0  0  0  0  0  0  0  0  0  0  0
   89.4070  119.9830  111.8050 C   0  0  0  0  0  0  0  0  0  0  0  0
   89.9010  119.4610  113.1620 C   0  0  2  0  0  0  0  0  0  0  0  0
   92.9710  120.5410  115.3420 C   0  0  2  0  0  0  0  0  0  0  0  0
   94.1570  120.0690  116.1680 C   0  0  0  0  0  0  0  0  0  0  0  0
   94.6920  121.3740  116.8010 C   0  0  0  0  0  0  0  0  0  0  0  0
   93.6710  122.5080  116.4520 C   0  0  1  0  0  0  0  0  0  0  0  0
   91.3500  123.4880  115.3210 H   0  0  0  0  0  0  0  0  0  0  0  0
   90.2370  122.2480  115.8410 H   0  0  0  0  0  0  0  0  0  0  0  0
   91.8160  122.3480  113.2720 H   0  0  0  0  0  0  0  0  0  0  0  0
   91.8520  120.2260  112.7890 H   0  0  0  0  0  0  0  0  0  0  0  0
   91.1710  119.3740  115.6480 H   0  0  0  0  0  0  0  0  0  0  0  0
   93.0920  118.3420  113.4980 H   0  0  0  0  0  0  0  0  0  0  0  0
   92.9950  117.7470  115.1930 H   0  0  0  0  0  0  0  0  0  0  0  0
   91.6530  116.3670  113.6170 H   0  0  0  0  0  0  0  0  0  0  0  0
   90.6680  117.0680  114.9410 H   0  0  0  0  0  0  0  0  0  0  0  0
   89.8480  116.1000  112.1380 H   0  0  0  0  0  0  0  0  0  0  0  0
   88.3810  119.6130  110.0100 H   0  0  0  0  0  0  0  0  0  0  0  0
   89.4520  121.0310  111.5560 H   0  0  0  0  0  0  0  0  0  0  0  0
   93.4540  120.9500  114.4200 H   0  0  0  0  0  0  0  0  0  0  0  0
   93.8380  119.3440  116.9480 H   0  0  0  0  0  0  0  0  0  0  0  0
   94.9290  119.5890  115.5260 H   0  0  0  0  0  0  0  0  0  0  0  0
   94.8020  121.2190  117.8960 H   0  0  0  0  0  0  0  0  0  0  0  0
   95.7010  121.6130  116.3990 H   0  0  0  0  0  0  0  0  0  0  0  0
   91.7170  121.2160  117.5080 C   0  0  0  0  0  0  0  0  0  0  0  0
   91.1070  121.9970  118.0010 H   0  0  0  0  0  0  0  0  0  0  0  0
   92.5170  120.9770  118.2400 H   0  0  0  0  0  0  0  0  0  0  0  0
   91.0850  120.3140  117.3990 H   0  0  0  0  0  0  0  0  0  0  0  0
   88.7320  119.5430  114.1680 C   0  0  0  0  0  0  0  0  0  0  0  0
   88.4040  118.5370  114.4980 H   0  0  0  0  0  0  0  0  0  0  0  0
   88.9990  120.1300  115.0680 H   0  0  0  0  0  0  0  0  0  0  0  0
   87.8530  120.0350  113.6970 H   0  0  0  0  0  0  0  0  0  0  0  0
   89.7760  122.3680  113.4100 O   0  0  0  0  0  0  0  0  0  0  0  0
   89.1460  121.6010  113.3610 H   0  0  0  0  0  0  0  0  0  0  0  0
   94.1600  123.1390  115.2840 O   0  0  0  0  0  0  0  0  0  0  0  0
   94.9320  122.6280  114.9340 H   0  0  0  0  0  0  0  0  0  0  0  0
   93.5500  123.5340  117.5870 C   0  0  0  0  0  0  0  0  0  0  0  0
   92.7830  124.4810  117.4740 O   0  0  0  0  0  0  0  0  0  0  0  0
   94.3510  123.3960  118.8580 C   0  0  0  0  0  0  0  0  0  0  0  0
   93.6600  123.4360  119.7290 H   0  0  0  0  0  0  0  0  0  0  0  0
   94.8770  122.4160  118.8520 H   0  0  0  0  0  0  0  0  0  0  0  0
   95.2940  124.4270  118.9650 O   0  0  0  0  0  0  0  0  0  0  0  0
   95.7600  124.4670  118.0890 H   0  0  0  0  0  0  0  0  0  0  0  0
  1 18  1  0  0  0  0
  1 36  1  1  0  0  0
  2 20  1  0  0  0  0
  2  1  1  0  0  0  0
  3 21  1  6  0  0  0
  3  2  1  0  0  0  0
  4 22  1  6  0  0  0
  4  3  1  0  0  0  0
  4  5  1  0  0  0  0
  5 15  1  0  0  0  0
  5 23  1  1  0  0  0
  6  5  1  0  0  0  0
  6 25  1  0  0  0  0
  7  6  1  0  0  0  0
  7 27  1  0  0  0  0
  8 14  1  0  0  0  0
  8  7  1  0  0  0  0
  9  8  2  0  0  0  0
 10  9  1  0  0  0  0
 11 10  2  0  0  0  0
 12 10  1  0  0  0  0
 12 13  2  0  0  0  0
 13 14  1  0  0  0  0
 14  4  1  0  0  0  0
 14 40  1  1  0  0  0
 15 31  1  6  0  0  0
 15  1  1  0  0  0  0
 15 16  1  0  0  0  0
 16 17  1  0  0  0  0
 16 32  1  0  0  0  0
 17 34  1  0  0  0  0
 18 46  1  6  0  0  0
 18 17  1  0  0  0  0
 18 48  1  0  0  0  0
 19  2  1  0  0  0  0
 24  6  1  0  0  0  0
 26  7  1  0  0  0  0
 28  9  1  0  0  0  0
 29 12  1  0  0  0  0
 30 13  1  0  0  0  0
 33 16  1  0  0  0  0
 35 17  1  0  0  0  0
 36 37  1  0  0  0  0
 36 38  1  0  0  0  0
 39 36  1  0  0  0  0
 40 41  1  0  0  0  0
 40 42  1  0  0  0  0
 43 40  1  0  0  0  0
 44  3  1  0  0  0  0
 45 44  1  0  0  0  0
 47 46  1  0  0  0  0
 48 50  1  0  0  0  0
 49 48  2  0  0  0  0
 50 53  1  0  0  0  0
 50 51  1  0  0  0  0
 52 50  1  0  0  0  0
 54 53  1  0  0  0  0
M  END
>  <MODEL>
2

>  <REMARK>
 VINA RESULT:      -9.4      2.209      7.395
  Name = PREDNISOLONE
  7 active torsions:
  status: ('A' for Active; 'I' for Inactive)
    1  A    between atoms: C_1  and  C_2
    2  A    between atoms: C_4  and  O_5
    3  A    between atoms: C_16  and  C_17
    4  A    between atoms: C_21  and  O_22
    5  A    between atoms: C_21  and  C_23
    6  A    between atoms: C_23  and  C_25
    7  A    between atoms: C_25  and  O_26
                            x       y       z     vdW  Elec       q    Type
                         _______ _______ _______ _____ _____    ______ ____

>  <TORSDO>
F 7

>  <vina_affinity>
-9.4

>  <vina_rmsd_lb>
2.209

>  <vina_rmsd_ub>
7.395

$$$$
DEXAMETHASONE
 OpenBabel09042222203D

 57 60  0  0  1  0  0  0  0  0999 V2000
   94.6290  122.1140  116.1140 C   0  0  2  0  0  0  0  0  0  0  0  0
   94.0710  120.7060  115.7830 C   0  0  0  0  0  0  0  0  0  0  0  0
   92.7300  120.9790  115.1150 C   0  0  1  0  0  0  0  0  0  0  0  0
   91.6900  119.8330  115.0070 C   0  0  2  0  0  0  0  0  0  0  0  0
   92.3380  118.5890  114.3530 C   0  0  0  0  0  0  0  0  0  0  0  0
   91.3270  117.4650  114.1390 C   0  0  0  0  0  0  0  0  0  0  0  0
   90.1440  117.9790  113.3580 C   0  0  0  0  0  0  0  0  0  0  0  0
   89.7760  117.3550  112.2280 C   0  0  0  0  0  0  0  0  0  0  0  0
   88.6670  117.8580  111.4190 C   0  0  0  0  0  0  0  0  0  0  0  0
   88.3200  117.2520  110.3720 O   0  0  0  0  0  0  0  0  0  0  0  0
   87.9750  119.0790  111.8250 C   0  0  0  0  0  0  0  0  0  0  0  0
   88.3190  119.7110  112.9480 C   0  0  0  0  0  0  0  0  0  0  0  0
   89.3910  119.2000  113.9130 C   0  0  2  0  0  0  0  0  0  0  0  0
   90.4680  120.3400  114.1540 C   0  0  2  0  0  0  0  0  0  0  0  0
   90.9650  120.6460  112.8900 F   0  0  0  0  0  0  0  0  0  0  0  0
   89.8970  121.7050  114.7060 C   0  0  2  0  0  0  0  0  0  0  0  0
   90.9920  122.7770  114.9770 C   0  0  0  0  0  0  0  0  0  0  0  0
   92.2040  122.2490  115.8010 C   0  0  2  0  0  0  0  0  0  0  0  0
   93.4890  123.1460  115.7530 C   0  0  2  0  0  0  0  0  0  0  0  0
   94.8390  122.1290  117.2050 H   0  0  0  0  0  0  0  0  0  0  0  0
   94.7400  120.1300  115.1060 H   0  0  0  0  0  0  0  0  0  0  0  0
   93.9200  120.1200  116.7150 H   0  0  0  0  0  0  0  0  0  0  0  0
   92.9920  121.2400  114.0600 H   0  0  0  0  0  0  0  0  0  0  0  0
   91.3600  119.5260  116.0160 H   0  0  0  0  0  0  0  0  0  0  0  0
   92.7920  118.8610  113.3740 H   0  0  0  0  0  0  0  0  0  0  0  0
   93.1500  118.2030  115.0060 H   0  0  0  0  0  0  0  0  0  0  0  0
   91.8360  116.6260  113.6150 H   0  0  0  0  0  0  0  0  0  0  0  0
   90.9840  117.0750  115.1220 H   0  0  0  0  0  0  0  0  0  0  0  0
   90.3140  116.4800  111.8800 H   0  0  0  0  0  0  0  0  0  0  0  0
   87.1740  119.4710  111.2110 H   0  0  0  0  0  0  0  0  0  0  0  0
   87.7450  120.5870  113.2220 H   0  0  0  0  0  0  0  0  0  0  0  0
   89.2700  122.1420  113.8980 H   0  0  0  0  0  0  0  0  0  0  0  0
   91.3400  123.1440  113.9880 H   0  0  0  0  0  0  0  0  0  0  0  0
   90.5290  123.6470  115.4880 H   0  0  0  0  0  0  0  0  0  0  0  0
   95.9700  122.3780  115.4120 C   0  0  0  0  0  0  0  0  0  0  0  0
   96.6730  121.5440  115.6180 H   0  0  0  0  0  0  0  0  0  0  0  0
   96.4220  123.3160  115.7980 H   0  0  0  0  0  0  0  0  0  0  0  0
   95.8350  122.4590  114.3120 H   0  0  0  0  0  0  0  0  0  0  0  0
   88.6460  118.7320  115.1870 C   0  0  0  0  0  0  0  0  0  0  0  0
   89.3690  118.3060  115.9160 H   0  0  0  0  0  0  0  0  0  0  0  0
   87.9190  117.9210  114.9710 H   0  0  0  0  0  0  0  0  0  0  0  0
   88.1150  119.5610  115.6930 H   0  0  0  0  0  0  0  0  0  0  0  0
   91.7900  122.0190  117.2990 C   0  0  0  0  0  0  0  0  0  0  0  0
   91.8480  122.9160  117.9310 H   0  0  0  0  0  0  0  0  0  0  0  0
   92.4200  121.2310  117.7610 H   0  0  0  0  0  0  0  0  0  0  0  0
   90.7370  121.6880  117.3980 H   0  0  0  0  0  0  0  0  0  0  0  0
   89.0450  121.5790  115.8150 O   0  0  0  0  0  0  0  0  0  0  0  0
   89.4140  122.1130  116.5560 H   0  0  0  0  0  0  0  0  0  0  0  0
   93.6740  123.6190  114.4330 O   0  0  0  0  0  0  0  0  0  0  0  0
   93.2090  124.4920  114.3400 H   0  0  0  0  0  0  0  0  0  0  0  0
   93.4190  124.3440  116.7110 C   0  0  0  0  0  0  0  0  0  0  0  0
   94.1160  124.3810  117.7150 O   0  0  0  0  0  0  0  0  0  0  0  0
   92.4900  125.5000  116.4450 C   0  0  0  0  0  0  0  0  0  0  0  0
   91.4350  125.1460  116.4770 H   0  0  0  0  0  0  0  0  0  0  0  0
   92.5950  126.2770  117.2300 H   0  0  0  0  0  0  0  0  0  0  0  0
   92.7790  126.0800  115.2030 O   0  0  0  0  0  0  0  0  0  0  0  0
   93.4820  126.7630  115.3630 H   0  0  0  0  0  0  0  0  0  0  0  0
  1 20  1  1  0  0  0
  2  1  1  0  0  0  0
  2 22  1  0  0  0  0
  3 23  1  6  0  0  0
  3  2  1  0  0  0  0
  3 18  1  0  0  0  0
  4  3  1  0  0  0  0
  4 24  1  1  0  0  0
  5 26  1  0  0  0  0
  5  4  1  0  0  0  0
  6  5  1  0  0  0  0
  6 28  1  0  0  0  0
  7 13  1  0  0  0  0
  7  6  1  0  0  0  0
  8  7  2  0  0  0  0
  9 11  1  0  0  0  0
  9  8  1  0  0  0  0
 10  9  2  0  0  0  0
 11 12  2  0  0  0  0
 12 31  1  0  0  0  0
 12 13  1  0  0  0  0
 13 14  1  0  0  0  0
 13 39  1  1  0  0  0
 14 15  1  6  0  0  0
 14 16  1  0  0  0  0
 14  4  1  0  0  0  0
 16 32  1  6  0  0  0
 16 17  1  0  0  0  0
 16 47  1  0  0  0  0
 17 34  1  0  0  0  0
 17 18  1  0  0  0  0
 18 43  1  1  0  0  0
 19 49  1  6  0  0  0
 19 18  1  0  0  0  0
 19  1  1  0  0  0  0
 19 51  1  0  0  0  0
 21  2  1  0  0  0  0
 25  5  1  0  0  0  0
 27  6  1  0  0  0  0
 29  8  1  0  0  0  0
 30 11  1  0  0  0  0
 33 17  1  0  0  0  0
 35 36  1  0  0  0  0
 35 37  1  0  0  0  0
 35  1  1  0  0  0  0
 38 35  1  0  0  0  0
 39 42  1  0  0  0  0
 39 40  1  0  0  0  0
 41 39  1  0  0  0  0
 43 46  1  0  0  0  0
 43 45  1  0  0  0  0
 43 44  1  0  0  0  0
 47 48  1  0  0  0  0
 50 49  1  0  0  0  0
 51 52  2  0  0  0  0
 53 54  1  0  0  0  0
 53 51  1  0  0  0  0
 53 55  1  0  0  0  0
 56 57  1  0  0  0  0
 56 53  1  0  0  0  0
M  END
>  <MODEL>
1

>  <REMARK>
 VINA RESULT:      -9.8      0.000      0.000
  Name = DEXAMETHASONE
  8 active torsions:
  status: ('A' for Active; 'I' for Inactive)
    1  A    between atoms: C_1  and  C_2
    2  A    between atoms: C_14  and  C_15
    3  A    between atoms: C_18  and  O_19
    4  A    between atoms: C_21  and  C_22
    5  A    between atoms: C_23  and  O_24
    6  A    between atoms: C_23  and  C_25
    7  A    between atoms: C_25  and  C_27
    8  A    between atoms: C_27  and  O_28
                            x       y       z     vdW  Elec       q    Type
                         _______ _______ _______ _____ _____    ______ ____

>  <TORSDO>
F 8

>  <vina_affinity>
-9.8

>  <vina_rmsd_lb>
0.000

>  <vina_rmsd_ub>
0.000

$$$$
DEXAMETHASONE
 OpenBabel09042222203D

 57 60  0  0  1  0  0  0  0  0999 V2000
   91.0450  117.5590  113.9930 C   0  0  2  0  0  0  0  0  0  0  0  0
   92.3760  118.1730  114.4980 C   0  0  0  0  0  0  0  0  0  0  0  0
   91.9600  119.4720  115.1750 C   0  0  1  0  0  0  0  0  0  0  0  0
   93.0300  120.5630  115.4440 C   0  0  2  0  0  0  0  0  0  0  0  0
   94.2260  119.9520  116.2120 C   0  0  0  0  0  0  0  0  0  0  0  0
   95.2640  121.0090  116.5840 C   0  0  0  0  0  0  0  0  0  0  0  0
   94.6050  122.1340  117.3400 C   0  0  0  0  0  0  0  0  0  0  0  0
   95.0800  122.4890  118.5450 C   0  0  0  0  0  0  0  0  0  0  0  0
   94.4310  123.5400  119.3280 C   0  0  0  0  0  0  0  0  0  0  0  0
   94.8990  123.8760  120.4470 O   0  0  0  0  0  0  0  0  0  0  0  0
   93.2280  124.1860  118.8100 C   0  0  0  0  0  0  0  0  0  0  0  0
   92.7430  123.8540  117.6130 C   0  0  0  0  0  0  0  0  0  0  0  0
   93.4140  122.8460  116.6770 C   0  0  2  0  0  0  0  0  0  0  0  0
   92.3670  121.7250  116.2750 C   0  0  2  0  0  0  0  0  0  0  0  0
   91.9500  121.1650  117.4790 F   0  0  0  0  0  0  0  0  0  0  0  0
   91.0430  122.2480  115.5910 C   0  0  2  0  0  0  0  0  0  0  0  0
   90.0680  121.1120  115.1660 C   0  0  0  0  0  0  0  0  0  0  0  0
   90.7470  119.9600  114.3670 C   0  0  2  0  0  0  0  0  0  0  0  0
   89.9200  118.6310  114.2730 C   0  0  2  0  0  0  0  0  0  0  0  0
   91.1630  117.3910  112.9010 H   0  0  0  0  0  0  0  0  0  0  0  0
   92.9090  117.5080  115.2130 H   0  0  0  0  0  0  0  0  0  0  0  0
   93.0530  118.3880  113.6430 H   0  0  0  0  0  0  0  0  0  0  0  0
   91.5990  119.1570  116.1840 H   0  0  0  0  0  0  0  0  0  0  0  0
   93.4280  120.9460  114.4880 H   0  0  0  0  0  0  0  0  0  0  0  0
   93.8740  119.4480  117.1390 H   0  0  0  0  0  0  0  0  0  0  0  0
   94.7250  119.1860  115.5800 H   0  0  0  0  0  0  0  0  0  0  0  0
   96.0660  120.5220  117.1820 H   0  0  0  0  0  0  0  0  0  0  0  0
   95.7410  121.4080  115.6630 H   0  0  0  0  0  0  0  0  0  0  0  0
   95.9390  121.9820  118.9710 H   0  0  0  0  0  0  0  0  0  0  0  0
   92.7280  124.9420  119.4020 H   0  0  0  0  0  0  0  0  0  0  0  0
   91.8730  124.3940  117.2610 H   0  0  0  0  0  0  0  0  0  0  0  0
   90.4860  122.8200  116.3650 H   0  0  0  0  0  0  0  0  0  0  0  0
   89.6120  120.7080  116.0950 H   0  0  0  0  0  0  0  0  0  0  0  0
   89.2350  121.5510  114.5760 H   0  0  0  0  0  0  0  0  0  0  0  0
   90.7770  116.1810  114.6170 C   0  0  0  0  0  0  0  0  0  0  0  0
   89.7480  116.1500  115.0320 H   0  0  0  0  0  0  0  0  0  0  0  0
   91.4910  115.9940  115.4470 H   0  0  0  0  0  0  0  0  0  0  0  0
   90.8740  115.3740  113.8580 H   0  0  0  0  0  0  0  0  0  0  0  0
   93.9790  123.6620  115.4880 C   0  0  0  0  0  0  0  0  0  0  0  0
   93.4690  123.3650  114.5460 H   0  0  0  0  0  0  0  0  0  0  0  0
   95.0590  123.4650  115.3220 H   0  0  0  0  0  0  0  0  0  0  0  0
   93.8310  124.7520  115.6160 H   0  0  0  0  0  0  0  0  0  0  0  0
   91.1190  120.4420  112.9190 C   0  0  0  0  0  0  0  0  0  0  0  0
   91.1180  119.6470  112.1600 H   0  0  0  0  0  0  0  0  0  0  0  0
   92.1190  120.9240  112.9130 H   0  0  0  0  0  0  0  0  0  0  0  0
   90.4000  121.1890  112.5270 H   0  0  0  0  0  0  0  0  0  0  0  0
   91.2440  123.1470  114.5320 O   0  0  0  0  0  0  0  0  0  0  0  0
   90.7110  122.8470  113.7600 H   0  0  0  0  0  0  0  0  0  0  0  0
   89.3150  118.3730  115.5250 O   0  0  0  0  0  0  0  0  0  0  0  0
   89.3570  117.3970  115.7030 H   0  0  0  0  0  0  0  0  0  0  0  0
   88.8330  118.6790  113.1890 C   0  0  0  0  0  0  0  0  0  0  0  0
   88.9270  117.9930  112.1810 O   0  0  0  0  0  0  0  0  0  0  0  0
   87.6280  119.5720  113.3340 C   0  0  0  0  0  0  0  0  0  0  0  0
   87.9480  120.6380  113.3080 H   0  0  0  0  0  0  0  0  0  0  0  0
   86.9250  119.4220  112.4890 H   0  0  0  0  0  0  0  0  0  0  0  0
   86.9540  119.2880  114.5290 O   0  0  0  0  0  0  0  0  0  0  0  0
   86.7090  118.3260  114.4970 H   0  0  0  0  0  0  0  0  0  0  0  0
  1 20  1  6  0  0  0
  1 19  1  0  0  0  0
  1  2  1  0  0  0  0
  1 35  1  0  0  0  0
  2  3  1  0  0  0  0
  2 21  1  0  0  0  0
  3  4  1  0  0  0  0
  3 23  1  1  0  0  0
  4 24  1  6  0  0  0
  4  5  1  0  0  0  0
  4 14  1  0  0  0  0
  5  6  1  0  0  0  0
  5 25  1  0  0  0  0
  6 27  1  0  0  0  0
  6  7  1  0  0  0  0
  7  8  2  0  0  0  0
  8 29  1  0  0  0  0
  8  9  1  0  0  0  0
  9 10  2  0  0  0  0
 11  9  1  0  0  0  0
 11 30  1  0  0  0  0
 12 11  2  0  0  0  0
 13 39  1  6  0  0  0
 13  7  1  0  0  0  0
 13 12  1  0  0  0  0
 14 13  1  0  0  0  0
 14 15  1  1  0  0  0
 16 14  1  0  0  0  0
 16 32  1  1  0  0  0
 17 16  1  0  0  0  0
 17 33  1  0  0  0  0
 18 43  1  6  0  0  0
 18 17  1  0  0  0  0
 18  3  1  0  0  0  0
 19 51  1  6  0  0  0
 19 18  1  0  0  0  0
 19 49  1  0  0  0  0
 22  2  1  0  0  0  0
 26  5  1  0  0  0  0
 28  6  1  0  0  0  0
 31 12  1  0  0  0  0
 34 17  1  0  0  0  0
 35 36  1  0  0  0  0
 35 37  1  0  0  0  0
 38 35  1  0  0  0  0
 39 42  1  0  0  0  0
 40 39  1  0  0  0  0
 41 39  1  0  0  0  0
 44 43  1  0  0  0  0
 45 43  1  0  0  0  0
 46 43  1  0  0  0  0
 47 16  1  0  0  0  0
 48 47  1  0  0  0  0
 49 50  1  0  0  0  0
 51 53  1  0  0  0  0
 52 51  2  0  0  0  0
 53 56  1  0  0  0  0
 54 53  1  0  0  0  0
 55 53  1  0  0  0  0
 57 56  1  0  0  0  0
M  END
>  <MODEL>
2

>  <REMARK>
 VINA RESULT:      -9.6      1.877      6.952
  Name = DEXAMETHASONE
  8 active torsions:
  status: ('A' for Active; 'I' for Inactive)
    1  A    between atoms: C_1  and  C_2
    2  A    between atoms: C_14  and  C_15
    3  A    between atoms: C_18  and  O_19
    4  A    between atoms: C_21  and  C_22
    5  A    between atoms: C_23  and  O_24
    6  A    between atoms: C_23  and  C_25
    7  A    between atoms: C_25  and  C_27
    8  A    between atoms: C_27  and  O_28
                            x       y       z     vdW  Elec       q    Type
                         _______ _______ _______ _____ _____    ______ ____

>  <TORSDO>
F 8

>  <vina_affinity>
-9.6

>  <vina_rmsd_lb>
1.877

>  <vina_rmsd_ub>
6.952

$$$$
BECLOMETHASONE
 OpenBabel09042222203D

 57 60  0  0  1  0  0  0  0  0999 V2000
   94.6990  122.1070  118.4970 C   0  0  1  0  0  0  0  0  0  0  0  0
   93.2870  121.4850  118.3280 C   0  0  0  0  0  0  0  0  0  0  0  0
   93.0840  121.5340  116.8260 C   0  0  1  0  0  0  0  0  0  0  0  0
   91.7340  121.2680  116.1460 C   0  0  2  0  0  0  0  0  0  0  0  0
   90.8150  120.2770  116.8690 C   0  0  0  0  0  0  0  0  0  0  0  0
   89.4470  120.2600  116.1810 C   0  0  0  0  0  0  0  0  0  0  0  0
   89.5480  120.1000  114.6740 C   0  0  0  0  0  0  0  0  0  0  0  0
   88.5600  119.4280  114.0570 C   0  0  0  0  0  0  0  0  0  0  0  0
   88.5950  119.2000  112.6130 C   0  0  0  0  0  0  0  0  0  0  0  0
   87.6270  118.6420  112.0320 O   0  0  0  0  0  0  0  0  0  0  0  0
   89.7960  119.5610  111.8660 C   0  0  0  0  0  0  0  0  0  0  0  0
   90.7710  120.2530  112.4580 C   0  0  0  0  0  0  0  0  0  0  0  0
   90.6160  120.8810  113.8550 C   0  0  2  0  0  0  0  0  0  0  0  0
   91.9980  120.8610  114.6480 C   0  0  2  0  0  0  0  0  0  0  0  0
   92.5610  119.1290  114.6130 Cl  0  0  0  0  0  0  0  0  0  0  0  0
   93.2300  121.7070  114.0460 C   0  0  2  0  0  0  0  0  0  0  0  0
   93.6780  122.9860  114.8250 C   0  0  0  0  0  0  0  0  0  0  0  0
   93.6560  122.8980  116.3930 C   0  0  2  0  0  0  0  0  0  0  0  0
   95.0420  122.8480  117.1270 C   0  0  2  0  0  0  0  0  0  0  0  0
   95.4070  121.2520  118.6140 H   0  0  0  0  0  0  0  0  0  0  0  0
   93.2620  120.4380  118.7010 H   0  0  0  0  0  0  0  0  0  0  0  0
   92.4960  122.0630  118.8540 H   0  0  0  0  0  0  0  0  0  0  0  0
   93.7560  120.7200  116.4660 H   0  0  0  0  0  0  0  0  0  0  0  0
   91.1640  122.2060  116.1610 H   0  0  0  0  0  0  0  0  0  0  0  0
   90.6670  120.6040  117.9220 H   0  0  0  0  0  0  0  0  0  0  0  0
   91.2490  119.2570  116.9060 H   0  0  0  0  0  0  0  0  0  0  0  0
   88.9110  121.2100  116.3990 H   0  0  0  0  0  0  0  0  0  0  0  0
   88.8520  119.4350  116.6320 H   0  0  0  0  0  0  0  0  0  0  0  0
   87.7440  118.9960  114.6250 H   0  0  0  0  0  0  0  0  0  0  0  0
   89.9160  119.2190  110.8450 H   0  0  0  0  0  0  0  0  0  0  0  0
   91.6500  120.4280  111.8610 H   0  0  0  0  0  0  0  0  0  0  0  0
   94.1320  121.0510  114.0870 H   0  0  0  0  0  0  0  0  0  0  0  0
   94.6970  123.2740  114.4870 H   0  0  0  0  0  0  0  0  0  0  0  0
   93.0220  123.8120  114.4700 H   0  0  0  0  0  0  0  0  0  0  0  0
   94.8070  122.8760  119.8180 C   0  0  0  0  0  0  0  0  0  0  0  0
   95.0380  123.9410  119.6000 H   0  0  0  0  0  0  0  0  0  0  0  0
   95.6300  122.4980  120.4540 H   0  0  0  0  0  0  0  0  0  0  0  0
   93.8390  122.8620  120.3560 H   0  0  0  0  0  0  0  0  0  0  0  0
   90.0780  122.3190  113.6470 C   0  0  0  0  0  0  0  0  0  0  0  0
   90.8990  123.0570  113.7780 H   0  0  0  0  0  0  0  0  0  0  0  0
   89.6780  122.4770  112.6270 H   0  0  0  0  0  0  0  0  0  0  0  0
   89.2830  122.5760  114.3730 H   0  0  0  0  0  0  0  0  0  0  0  0
   92.8030  124.1100  116.9080 C   0  0  0  0  0  0  0  0  0  0  0  0
   93.3940  125.0330  117.0520 H   0  0  0  0  0  0  0  0  0  0  0  0
   91.9820  124.3210  116.1980 H   0  0  0  0  0  0  0  0  0  0  0  0
   92.2750  123.9050  117.8600 H   0  0  0  0  0  0  0  0  0  0  0  0
   93.0310  122.0560  112.7020 O   0  0  0  0  0  0  0  0  0  0  0  0
   93.2110  121.2480  112.1520 H   0  0  0  0  0  0  0  0  0  0  0  0
   95.8600  121.9640  116.3800 O   0  0  0  0  0  0  0  0  0  0  0  0
   96.6580  121.7400  116.9310 H   0  0  0  0  0  0  0  0  0  0  0  0
   95.7900  124.2080  117.1690 C   0  0  0  0  0  0  0  0  0  0  0  0
   95.6640  124.8900  118.1780 O   0  0  0  0  0  0  0  0  0  0  0  0
   96.6870  124.7770  116.0890 C   0  0  0  0  0  0  0  0  0  0  0  0
   97.0720  123.9360  115.4770 H   0  0  0  0  0  0  0  0  0  0  0  0
   97.5560  125.3300  116.4860 H   0  0  0  0  0  0  0  0  0  0  0  0
   95.9590  125.6180  115.2330 O   0  0  0  0  0  0  0  0  0  0  0  0
   95.6710  126.4000  115.7710 H   0  0  0  0  0  0  0  0  0  0  0  0
  1 20  1  1  0  0  0
  1 35  1  0  0  0  0
  2  1  1  0  0  0  0
  2 21  1  0  0  0  0
  2 22  1  0  0  0  0
  3 23  1  6  0  0  0
  3  2  1  0  0  0  0
  4 24  1  6  0  0  0
  4  3  1  0  0  0  0
  4  5  1  0  0  0  0
  5 26  1  0  0  0  0
  5 25  1  0  0  0  0
  6 27  1  0  0  0  0
  6 28  1  0  0  0  0
  6  5  1  0  0  0  0
  7  6  1  0  0  0  0
  8 29  1  0  0  0  0
  8  7  2  0  0  0  0
  9  8  1  0  0  0  0
 10  9  2  0  0  0  0
 11 12  2  0  0  0  0
 11  9  1  0  0  0  0
 12 13  1  0  0  0  0
 13 39  1  6  0  0  0
 13 14  1  0  0  0  0
 13  7  1  0  0  0  0
 14 15  1  1  0  0  0
 14  4  1  0  0  0  0
 16 32  1  1  0  0  0
 16 14  1  0  0  0  0
 16 17  1  0  0  0  0
 17 18  1  0  0  0  0
 18  3  1  0  0  0  0
 18 43  1  1  0  0  0
 18 19  1  0  0  0  0
 19 49  1  6  0  0  0
 19 51  1  0  0  0  0
 19  1  1  0  0  0  0
 30 11  1  0  0  0  0
 31 12  1  0  0  0  0
 33 17  1  0  0  0  0
 34 17  1  0  0  0  0
 35 38  1  0  0  0  0
 35 37  1  0  0  0  0
 36 35  1  0  0  0  0
 39 40  1  0  0  0  0
 39 42  1  0  0  0  0
 41 39  1  0  0  0  0
 43 44  1  0  0  0  0
 43 46  1  0  0  0  0
 45 43  1  0  0  0  0
 47 16  1  0  0  0  0
 48 47  1  0  0  0  0
 49 50  1  0  0  0  0
 51 52  2  0  0  0  0
 53 55  1  0  0  0  0
 53 51  1  0  0  0  0
 54 53  1  0  0  0  0
 56 57  1  0  0  0  0
 56 53  1  0  0  0  0
M  END
>  <MODEL>
1

>  <REMARK>
 VINA RESULT:      -9.8      0.000      0.000
  Name = BECLOMETHASONE
  8 active torsions:
  status: ('A' for Active; 'I' for Inactive)
    1  A    between atoms: C_1  and  C_2
    2  A    between atoms: C_14  and  C_15
    3  A    between atoms: C_18  and  O_19
    4  A    between atoms: C_21  and  C_22
    5  A    between atoms: C_23  and  O_24
    6  A    between atoms: C_23  and  C_25
    7  A    between atoms: C_25  and  C_27
    8  A    between atoms: C_27  and  O_28
                            x       y       z     vdW  Elec       q    Type
                         _______ _______ _______ _____ _____    ______ ____

>  <TORSDO>
F 8

>  <vina_affinity>
-9.8

>  <vina_rmsd_lb>
0.000

>  <vina_rmsd_ub>
0.000

$$$$
BECLOMETHASONE
 OpenBabel09042222203D

 57 60  0  0  1  0  0  0  0  0999 V2000
   90.3600  117.2560  116.1380 C   0  0  1  0  0  0  0  0  0  0  0  0
   91.2380  118.1920  117.0130 C   0  0  0  0  0  0  0  0  0  0  0  0
   91.1120  119.5240  116.2970 C   0  0  1  0  0  0  0  0  0  0  0  0
   91.9940  120.7390  116.6120 C   0  0  2  0  0  0  0  0  0  0  0  0
   92.4660  120.8520  118.0660 C   0  0  0  0  0  0  0  0  0  0  0  0
   93.4800  121.9950  118.1820 C   0  0  0  0  0  0  0  0  0  0  0  0
   92.9950  123.2810  117.5360 C   0  0  0  0  0  0  0  0  0  0  0  0
   93.3880  124.4390  118.0930 C   0  0  0  0  0  0  0  0  0  0  0  0
   92.9410  125.7220  117.5530 C   0  0  0  0  0  0  0  0  0  0  0  0
   93.3800  126.8020  118.0300 O   0  0  0  0  0  0  0  0  0  0  0  0
   91.9250  125.7360  116.5060 C   0  0  0  0  0  0  0  0  0  0  0  0
   91.5460  124.5970  115.9240 C   0  0  0  0  0  0  0  0  0  0  0  0
   92.2750  123.2610  116.1560 C   0  0  2  0  0  0  0  0  0  0  0  0
   91.2550  122.0380  116.1170 C   0  0  2  0  0  0  0  0  0  0  0  0
   89.9470  122.4490  117.3180 Cl  0  0  0  0  0  0  0  0  0  0  0  0
   90.4720  121.7460  114.7390 C   0  0  2  0  0  0  0  0  0  0  0  0
   90.8610  120.4570  113.9460 C   0  0  0  0  0  0  0  0  0  0  0  0
   91.1750  119.1760  114.7970 C   0  0  2  0  0  0  0  0  0  0  0  0
   90.1230  118.0110  114.7530 C   0  0  2  0  0  0  0  0  0  0  0  0
   89.3770  117.1720  116.6570 H   0  0  0  0  0  0  0  0  0  0  0  0
   90.8440  118.2570  118.0510 H   0  0  0  0  0  0  0  0  0  0  0  0
   92.2990  117.8670  117.0600 H   0  0  0  0  0  0  0  0  0  0  0  0
   90.0750  119.8410  116.5600 H   0  0  0  0  0  0  0  0  0  0  0  0
   92.9270  120.6280  116.0460 H   0  0  0  0  0  0  0  0  0  0  0  0
   92.9730  119.9100  118.3700 H   0  0  0  0  0  0  0  0  0  0  0  0
   91.6210  121.0040  118.7680 H   0  0  0  0  0  0  0  0  0  0  0  0
   94.4340  121.6940  117.6950 H   0  0  0  0  0  0  0  0  0  0  0  0
   93.6960  122.1470  119.2630 H   0  0  0  0  0  0  0  0  0  0  0  0
   94.0040  124.4440  118.9860 H   0  0  0  0  0  0  0  0  0  0  0  0
   91.4420  126.6690  116.2390 H   0  0  0  0  0  0  0  0  0  0  0  0
   90.7490  124.6810  115.2040 H   0  0  0  0  0  0  0  0  0  0  0  0
   89.4000  121.5760  114.9990 H   0  0  0  0  0  0  0  0  0  0  0  0
   90.0530  120.2260  113.2170 H   0  0  0  0  0  0  0  0  0  0  0  0
   91.7350  120.7320  113.3150 H   0  0  0  0  0  0  0  0  0  0  0  0
   90.9150  115.8270  116.1330 C   0  0  0  0  0  0  0  0  0  0  0  0
   91.9730  115.8510  115.7950 H   0  0  0  0  0  0  0  0  0  0  0  0
   90.3710  115.1720  115.4270 H   0  0  0  0  0  0  0  0  0  0  0  0
   90.9160  115.4080  117.1590 H   0  0  0  0  0  0  0  0  0  0  0  0
   93.3690  123.1490  115.0650 C   0  0  0  0  0  0  0  0  0  0  0  0
   94.2670  123.7340  115.3610 H   0  0  0  0  0  0  0  0  0  0  0  0
   93.7140  122.1060  114.9170 H   0  0  0  0  0  0  0  0  0  0  0  0
   93.0270  123.5410  114.0880 H   0  0  0  0  0  0  0  0  0  0  0  0
   92.5870  118.6610  114.3490 C   0  0  0  0  0  0  0  0  0  0  0  0
   93.4210  119.1330  114.8990 H   0  0  0  0  0  0  0  0  0  0  0  0
   92.6480  117.5650  114.4840 H   0  0  0  0  0  0  0  0  0  0  0  0
   92.7850  118.8000  113.2690 H   0  0  0  0  0  0  0  0  0  0  0  0
   90.5190  122.8370  113.8590 O   0  0  0  0  0  0  0  0  0  0  0  0
   91.1430  122.6020  113.1220 H   0  0  0  0  0  0  0  0  0  0  0  0
   88.8460  118.6190  114.8340 O   0  0  0  0  0  0  0  0  0  0  0  0
   88.6140  118.7240  115.7960 H   0  0  0  0  0  0  0  0  0  0  0  0
   90.1360  117.1920  113.4340 C   0  0  0  0  0  0  0  0  0  0  0  0
   89.6210  117.7030  112.4470 O   0  0  0  0  0  0  0  0  0  0  0  0
   90.7440  115.8200  113.2300 C   0  0  0  0  0  0  0  0  0  0  0  0
   91.3380  115.5650  114.1320 H   0  0  0  0  0  0  0  0  0  0  0  0
   91.4160  115.7620  112.3570 H   0  0  0  0  0  0  0  0  0  0  0  0
   89.7400  114.8480  113.1040 O   0  0  0  0  0  0  0  0  0  0  0  0
   88.8800  115.2880  113.3300 H   0  0  0  0  0  0  0  0  0  0  0  0
  1 20  1  1  0  0  0
  1  2  1  0  0  0  0
  2 22  1  0  0  0  0
  2 21  1  0  0  0  0
  3 23  1  1  0  0  0
  3  4  1  0  0  0  0
  3  2  1  0  0  0  0
  4 24  1  6  0  0  0
  4  5  1  0  0  0  0
  5  6  1  0  0  0  0
  5 25  1  0  0  0  0
  5 26  1  0  0  0  0
  6 28  1  0  0  0  0
  7  8  2  0  0  0  0
  7  6  1  0  0  0  0
  8 29  1  0  0  0  0
  9 10  2  0  0  0  0
  9  8  1  0  0  0  0
 11  9  1  0  0  0  0
 12 13  1  0  0  0  0
 12 11  2  0  0  0  0
 13 39  1  6  0  0  0
 13  7  1  0  0  0  0
 14 13  1  0  0  0  0
 14  4  1  0  0  0  0
 14 15  1  1  0  0  0
 16 32  1  1  0  0  0
 16 14  1  0  0  0  0
 17 16  1  0  0  0  0
 17 18  1  0  0  0  0
 18 43  1  6  0  0  0
 18  3  1  0  0  0  0
 19 51  1  6  0  0  0
 19 18  1  0  0  0  0
 19 49  1  0  0  0  0
 19  1  1  0  0  0  0
 27  6  1  0  0  0  0
 30 11  1  0  0  0  0
 31 12  1  0  0  0  0
 33 17  1  0  0  0  0
 34 17  1  0  0  0  0
 35  1  1  0  0  0  0
 35 38  1  0  0  0  0
 36 35  1  0  0  0  0
 37 35  1  0  0  0  0
 39 40  1  0  0  0  0
 41 39  1  0  0  0  0
 42 39  1  0  0  0  0
 43 45  1  0  0  0  0
 43 44  1  0  0  0  0
 46 43  1  0  0  0  0
 47 16  1  0  0  0  0
 48 47  1  0  0  0  0
 49 50  1  0  0  0  0
 52 51  2  0  0  0  0
 53 51  1  0  0  0  0
 53 54  1  0  0  0  0
 55 53  1  0  0  0  0
 56 53  1  0  0  0  0
 56 57  1  0  0  0  0
M  END
>  <MODEL>
2

>  <REMARK>
 VINA RESULT:      -9.7      2.451      6.953
  Name = BECLOMETHASONE
  8 active torsions:
  status: ('A' for Active; 'I' for Inactive)
    1  A    between atoms: C_1  and  C_2
    2  A    between atoms: C_14  and  C_15
    3  A    between atoms: C_18  and  O_19
    4  A    between atoms: C_21  and  C_22
    5  A    between atoms: C_23  and  O_24
    6  A    between atoms: C_23  and  C_25
    7  A    between atoms: C_25  and  C_27
    8  A    between atoms: C_27  and  O_28
                            x       y       z     vdW  Elec       q    Type
                         _______ _______ _______ _____ _____    ______ ____

>  <TORSDO>
F 8

>  <vina_affinity>
-9.7

>  <vina_rmsd_lb>
2.451

>  <vina_rmsd_ub>
6.953

$$$$
PREDNISONE
 OpenBabel09042222203D

 52 55  0  0  1  0  0  0  0  0999 V2000
   93.6910  123.3240  117.2280 C   0  0  1  0  0  0  0  0  0  0  0  0
   94.5340  122.0300  117.3370 C   0  0  0  0  0  0  0  0  0  0  0  0
   93.8630  120.9260  116.5440 C   0  0  0  0  0  0  0  0  0  0  0  0
   94.5260  120.2930  115.7330 O   0  0  0  0  0  0  0  0  0  0  0  0
   92.3770  120.6250  116.7910 C   0  0  1  0  0  0  0  0  0  0  0  0
   91.5470  121.9560  116.7740 C   0  0  1  0  0  0  0  0  0  0  0  0
   90.1080  121.6900  117.2560 C   0  0  0  0  0  0  0  0  0  0  0  0
   89.4160  120.6690  116.3520 C   0  0  0  0  0  0  0  0  0  0  0  0
   90.2310  119.3960  116.2820 C   0  0  0  0  0  0  0  0  0  0  0  0
   89.6110  118.2150  116.4520 C   0  0  0  0  0  0  0  0  0  0  0  0
   90.3670  116.9620  116.4460 C   0  0  0  0  0  0  0  0  0  0  0  0
   89.7710  115.8570  116.5530 O   0  0  0  0  0  0  0  0  0  0  0  0
   91.8230  117.0050  116.3520 C   0  0  0  0  0  0  0  0  0  0  0  0
   92.4540  118.1670  116.1700 C   0  0  0  0  0  0  0  0  0  0  0  0
   91.7260  119.4900  115.9130 C   0  0  2  0  0  0  0  0  0  0  0  0
   92.2540  122.9890  117.6850 C   0  0  2  0  0  0  0  0  0  0  0  0
   91.5920  124.3430  117.9090 C   0  0  0  0  0  0  0  0  0  0  0  0
   92.7310  125.2710  118.3740 C   0  0  0  0  0  0  0  0  0  0  0  0
   94.0700  124.4750  118.2200 C   0  0  1  0  0  0  0  0  0  0  0  0
   95.5630  122.2070  116.9570 H   0  0  0  0  0  0  0  0  0  0  0  0
   94.6180  121.6930  118.3930 H   0  0  0  0  0  0  0  0  0  0  0  0
   92.3400  120.2460  117.8400 H   0  0  0  0  0  0  0  0  0  0  0  0
   91.4760  122.3630  115.7450 H   0  0  0  0  0  0  0  0  0  0  0  0
   90.1150  121.3130  118.3060 H   0  0  0  0  0  0  0  0  0  0  0  0
   89.5170  122.6330  117.2340 H   0  0  0  0  0  0  0  0  0  0  0  0
   88.3970  120.4820  116.7550 H   0  0  0  0  0  0  0  0  0  0  0  0
   89.2950  121.0880  115.3290 H   0  0  0  0  0  0  0  0  0  0  0  0
   88.5450  118.1730  116.6380 H   0  0  0  0  0  0  0  0  0  0  0  0
   92.3940  116.0900  116.4600 H   0  0  0  0  0  0  0  0  0  0  0  0
   93.5300  118.1290  116.1080 H   0  0  0  0  0  0  0  0  0  0  0  0
   92.3010  122.5090  118.6910 H   0  0  0  0  0  0  0  0  0  0  0  0
   90.7960  124.2750  118.6820 H   0  0  0  0  0  0  0  0  0  0  0  0
   91.1470  124.7170  116.9620 H   0  0  0  0  0  0  0  0  0  0  0  0
   92.5720  125.5880  119.4290 H   0  0  0  0  0  0  0  0  0  0  0  0
   92.7050  126.1920  117.7520 H   0  0  0  0  0  0  0  0  0  0  0  0
   93.7440  123.8300  115.7460 C   0  0  0  0  0  0  0  0  0  0  0  0
   92.9920  124.6130  115.5340 H   0  0  0  0  0  0  0  0  0  0  0  0
   93.5140  123.0010  115.0440 H   0  0  0  0  0  0  0  0  0  0  0  0
   94.7440  124.2350  115.4860 H   0  0  0  0  0  0  0  0  0  0  0  0
   91.8170  119.7860  114.3980 C   0  0  0  0  0  0  0  0  0  0  0  0
   91.8000  120.8740  114.1840 H   0  0  0  0  0  0  0  0  0  0  0  0
   90.9910  119.3110  113.8330 H   0  0  0  0  0  0  0  0  0  0  0  0
   92.7730  119.3900  113.9920 H   0  0  0  0  0  0  0  0  0  0  0  0
   94.4650  123.9400  119.4700 O   0  0  0  0  0  0  0  0  0  0  0  0
   93.6840  123.5480  119.9380 H   0  0  0  0  0  0  0  0  0  0  0  0
   95.2140  125.3670  117.7230 C   0  0  0  0  0  0  0  0  0  0  0  0
   96.3400  124.9090  117.5860 O   0  0  0  0  0  0  0  0  0  0  0  0
   95.0040  126.8350  117.4400 C   0  0  0  0  0  0  0  0  0  0  0  0
   95.7950  127.4480  117.9340 H   0  0  0  0  0  0  0  0  0  0  0  0
   94.0270  127.1470  117.8650 H   0  0  0  0  0  0  0  0  0  0  0  0
   94.9950  127.0830  116.0560 O   0  0  0  0  0  0  0  0  0  0  0  0
   94.0440  127.2330  115.8090 H   0  0  0  0  0  0  0  0  0  0  0  0
  1 36  1  6  0  0  0
  1  2  1  0  0  0  0
  1 16  1  0  0  0  0
  1 19  1  0  0  0  0
  2 21  1  0  0  0  0
  3  5  1  0  0  0  0
  3  2  1  0  0  0  0
  4  3  2  0  0  0  0
  5 22  1  1  0  0  0
  6 23  1  6  0  0  0
  6  5  1  0  0  0  0
  6  7  1  0  0  0  0
  6 16  1  0  0  0  0
  7 24  1  0  0  0  0
  8 26  1  0  0  0  0
  8  7  1  0  0  0  0
  9  8  1  0  0  0  0
  9 10  2  0  0  0  0
 10 28  1  0  0  0  0
 11 10  1  0  0  0  0
 11 12  2  0  0  0  0
 13 11  1  0  0  0  0
 13 29  1  0  0  0  0
 14 13  2  0  0  0  0
 15 40  1  6  0  0  0
 15 14  1  0  0  0  0
 15  9  1  0  0  0  0
 15  5  1  0  0  0  0
 16 17  1  0  0  0  0
 16 31  1  1  0  0  0
 17 18  1  0  0  0  0
 17 32  1  0  0  0  0
 18 34  1  0  0  0  0
 19 46  1  6  0  0  0
 19 18  1  0  0  0  0
 19 44  1  0  0  0  0
 20  2  1  0  0  0  0
 25  7  1  0  0  0  0
 27  8  1  0  0  0  0
 30 14  1  0  0  0  0
 33 17  1  0  0  0  0
 35 18  1  0  0  0  0
 37 36  1  0  0  0  0
 38 36  1  0  0  0  0
 39 36  1  0  0  0  0
 41 40  1  0  0  0  0
 42 40  1  0  0  0  0
 43 40  1  0  0  0  0
 44 45  1  0  0  0  0
 47 46  2  0  0  0  0
 48 46  1  0  0  0  0
 48 50  1  0  0  0  0
 48 49  1  0  0  0  0
 51 48  1  0  0  0  0
 52 51  1  0  0  0  0
M  END
>  <MODEL>
1

>  <REMARK>
 VINA RESULT:      -9.6      0.000      0.000
  Name = PREDNISONE
  6 active torsions:
  status: ('A' for Active; 'I' for Inactive)
    1  A    between atoms: C_1  and  C_2
    2  A    between atoms: C_16  and  C_17
    3  A    between atoms: C_21  and  O_22
    4  A    between atoms: C_21  and  C_23
    5  A    between atoms: C_23  and  C_25
    6  A    between atoms: C_25  and  O_26
                            x       y       z     vdW  Elec       q    Type
                         _______ _______ _______ _____ _____    ______ ____

>  <TORSDO>
F 6

>  <vina_affinity>
-9.6

>  <vina_rmsd_lb>
0.000

>  <vina_rmsd_ub>
0.000

$$$$
PREDNISONE
 OpenBabel09042222203D

 52 55  0  0  1  0  0  0  0  0999 V2000
   93.0520  121.7130  115.4420 C   0  0  1  0  0  0  0  0  0  0  0  0
   92.3690  122.4330  114.2540 C   0  0  0  0  0  0  0  0  0  0  0  0
   91.1040  121.6890  113.8750 C   0  0  0  0  0  0  0  0  0  0  0  0
   90.0580  122.3140  113.7710 O   0  0  0  0  0  0  0  0  0  0  0  0
   91.1760  120.1750  113.6190 C   0  0  1  0  0  0  0  0  0  0  0  0
   91.9550  119.4680  114.7820 C   0  0  1  0  0  0  0  0  0  0  0  0
   92.2370  117.9990  114.4160 C   0  0  0  0  0  0  0  0  0  0  0  0
   90.9300  117.2440  114.1700 C   0  0  0  0  0  0  0  0  0  0  0  0
   90.1150  117.9430  113.1050 C   0  0  0  0  0  0  0  0  0  0  0  0
   89.5900  117.2160  112.1030 C   0  0  0  0  0  0  0  0  0  0  0  0
   88.8390  117.8580  111.0230 C   0  0  0  0  0  0  0  0  0  0  0  0
   88.3060  117.1630  110.1170 O   0  0  0  0  0  0  0  0  0  0  0  0
   88.7450  119.3130  110.9830 C   0  0  0  0  0  0  0  0  0  0  0  0
   89.2480  120.0500  111.9760 C   0  0  0  0  0  0  0  0  0  0  0  0
   89.8230  119.4500  113.2630 C   0  0  2  0  0  0  0  0  0  0  0  0
   93.2740  120.2390  115.0330 C   0  0  2  0  0  0  0  0  0  0  0  0
   94.2580  119.6950  116.0610 C   0  0  0  0  0  0  0  0  0  0  0  0
   95.1400  120.8990  116.4450 C   0  0  0  0  0  0  0  0  0  0  0  0
   94.5150  122.1660  115.7690 C   0  0  1  0  0  0  0  0  0  0  0  0
   92.1310  123.4840  114.5270 H   0  0  0  0  0  0  0  0  0  0  0  0
   93.0340  122.4580  113.3640 H   0  0  0  0  0  0  0  0  0  0  0  0
   91.8140  120.0770  112.7090 H   0  0  0  0  0  0  0  0  0  0  0  0
   91.3520  119.4610  115.7130 H   0  0  0  0  0  0  0  0  0  0  0  0
   92.8760  117.9440  113.5030 H   0  0  0  0  0  0  0  0  0  0  0  0
   92.7810  117.4940  115.2460 H   0  0  0  0  0  0  0  0  0  0  0  0
   91.1810  116.2010  113.8750 H   0  0  0  0  0  0  0  0  0  0  0  0
   90.3410  117.1880  115.1120 H   0  0  0  0  0  0  0  0  0  0  0  0
   89.7480  116.1460  112.0570 H   0  0  0  0  0  0  0  0  0  0  0  0
   88.2870  119.7970  110.1280 H   0  0  0  0  0  0  0  0  0  0  0  0
   89.1430  121.1200  111.8860 H   0  0  0  0  0  0  0  0  0  0  0  0
   93.8160  120.2160  114.0580 H   0  0  0  0  0  0  0  0  0  0  0  0
   94.8720  118.8760  115.6290 H   0  0  0  0  0  0  0  0  0  0  0  0
   93.7140  119.3100  116.9510 H   0  0  0  0  0  0  0  0  0  0  0  0
   96.1880  120.7400  116.1070 H   0  0  0  0  0  0  0  0  0  0  0  0
   95.1640  120.9710  117.5540 H   0  0  0  0  0  0  0  0  0  0  0  0
   92.1340  121.8510  116.7030 C   0  0  0  0  0  0  0  0  0  0  0  0
   92.6710  122.2560  117.5820 H   0  0  0  0  0  0  0  0  0  0  0  0
   91.7580  120.8550  117.0210 H   0  0  0  0  0  0  0  0  0  0  0  0
   91.2580  122.5020  116.5050 H   0  0  0  0  0  0  0  0  0  0  0  0
   88.7550  119.6080  114.3700 C   0  0  0  0  0  0  0  0  0  0  0  0
   88.3300  120.6320  114.3950 H   0  0  0  0  0  0  0  0  0  0  0  0
   89.1630  119.3810  115.3740 H   0  0  0  0  0  0  0  0  0  0  0  0
   87.9110  118.9100  114.1830 H   0  0  0  0  0  0  0  0  0  0  0  0
   95.2140  122.4770  114.5790 O   0  0  0  0  0  0  0  0  0  0  0  0
   95.7270  121.6890  114.2650 H   0  0  0  0  0  0  0  0  0  0  0  0
   94.5900  123.3970  116.6800 C   0  0  0  0  0  0  0  0  0  0  0  0
   94.9590  123.2850  117.8410 O   0  0  0  0  0  0  0  0  0  0  0  0
   94.1660  124.7630  116.1970 C   0  0  0  0  0  0  0  0  0  0  0  0
   94.0900  125.4770  117.0510 H   0  0  0  0  0  0  0  0  0  0  0  0
   93.1590  124.6860  115.7380 H   0  0  0  0  0  0  0  0  0  0  0  0
   95.0640  125.2560  115.2340 O   0  0  0  0  0  0  0  0  0  0  0  0
   95.0960  124.5740  114.5120 H   0  0  0  0  0  0  0  0  0  0  0  0
  1 19  1  0  0  0  0
  1 36  1  1  0  0  0
  2 20  1  0  0  0  0
  2  1  1  0  0  0  0
  3  2  1  0  0  0  0
  4  3  2  0  0  0  0
  5 22  1  6  0  0  0
  5  3  1  0  0  0  0
  5  6  1  0  0  0  0
  6 16  1  0  0  0  0
  6 23  1  1  0  0  0
  7  6  1  0  0  0  0
  7 25  1  0  0  0  0
  8  7  1  0  0  0  0
  8 27  1  0  0  0  0
  9 15  1  0  0  0  0
  9  8  1  0  0  0  0
 10  9  2  0  0  0  0
 11 10  1  0  0  0  0
 12 11  2  0  0  0  0
 13 11  1  0  0  0  0
 13 14  2  0  0  0  0
 14 15  1  0  0  0  0
 15  5  1  0  0  0  0
 15 40  1  1  0  0  0
 16 31  1  6  0  0  0
 16  1  1  0  0  0  0
 16 17  1  0  0  0  0
 17 18  1  0  0  0  0
 17 33  1  0  0  0  0
 18 35  1  0  0  0  0
 19 44  1  6  0  0  0
 19 18  1  0  0  0  0
 19 46  1  0  0  0  0
 21  2  1  0  0  0  0
 24  7  1  0  0  0  0
 26  8  1  0  0  0  0
 28 10  1  0  0  0  0
 29 13  1  0  0  0  0
 30 14  1  0  0  0  0
 32 17  1  0  0  0  0
 34 18  1  0  0  0  0
 36 38  1  0  0  0  0
 36 37  1  0  0  0  0
 39 36  1  0  0  0  0
 40 41  1  0  0  0  0
 40 42  1  0  0  0  0
 43 40  1  0  0  0  0
 45 44  1  0  0  0  0
 46 47  2  0  0  0  0
 48 46  1  0  0  0  0
 48 49  1  0  0  0  0
 50 48  1  0  0  0  0
 51 48  1  0  0  0  0
 52 51  1  0  0  0  0
M  END
>  <MODEL>
2

>  <REMARK>
 VINA RESULT:      -9.6      2.877      4.289
  Name = PREDNISONE
  6 active torsions:
  status: ('A' for Active; 'I' for Inactive)
    1  A    between atoms: C_1  and  C_2
    2  A    between atoms: C_16  and  C_17
    3  A    between atoms: C_21  and  O_22
    4  A    between atoms: C_21  and  C_23
    5  A    between atoms: C_23  and  C_25
    6  A    between atoms: C_25  and  O_26
                            x       y       z     vdW  Elec       q    Type
                         _______ _______ _______ _____ _____    ______ ____

>  <TORSDO>
F 6

>  <vina_affinity>
-9.6

>  <vina_rmsd_lb>
2.877

>  <vina_rmsd_ub>
4.289

$$$$
CORTISOL
 OpenBabel09042222203D

 56 59  0  0  1  0  0  0  0  0999 V2000
   93.1350  122.1940  116.1770 C   0  0  1  0  0  0  0  0  0  0  0  0
   92.0990  123.0080  115.3490 C   0  0  0  0  0  0  0  0  0  0  0  0
   90.8030  122.2110  115.0390 C   0  0  1  0  0  0  0  0  0  0  0  0
   91.0830  120.7880  114.4240 C   0  0  1  0  0  0  0  0  0  0  0  0
   92.1520  119.9750  115.2310 C   0  0  1  0  0  0  0  0  0  0  0  0
   92.5510  118.7050  114.4480 C   0  0  0  0  0  0  0  0  0  0  0  0
   91.3430  117.8250  114.1470 C   0  0  0  0  0  0  0  0  0  0  0  0
   90.2780  118.6100  113.4180 C   0  0  0  0  0  0  0  0  0  0  0  0
   89.6480  118.0320  112.3790 C   0  0  0  0  0  0  0  0  0  0  0  0
   88.5020  118.6660  111.7160 C   0  0  0  0  0  0  0  0  0  0  0  0
   87.9910  118.1250  110.7010 O   0  0  0  0  0  0  0  0  0  0  0  0
   87.9010  119.9140  112.2770 C   0  0  0  0  0  0  0  0  0  0  0  0
   88.9750  120.7510  112.9740 C   0  0  0  0  0  0  0  0  0  0  0  0
   89.8060  119.9390  114.0240 C   0  0  2  0  0  0  0  0  0  0  0  0
   93.4020  120.8740  115.4300 C   0  0  2  0  0  0  0  0  0  0  0  0
   94.6310  120.2970  116.1190 C   0  0  0  0  0  0  0  0  0  0  0  0
   95.4490  121.5370  116.5330 C   0  0  0  0  0  0  0  0  0  0  0  0
   94.5860  122.7900  116.2040 C   0  0  1  0  0  0  0  0  0  0  0  0
   92.5440  123.3050  114.3740 H   0  0  0  0  0  0  0  0  0  0  0  0
   91.8420  123.9520  115.8760 H   0  0  0  0  0  0  0  0  0  0  0  0
   90.2770  122.8070  114.2630 H   0  0  0  0  0  0  0  0  0  0  0  0
   91.5840  121.0140  113.4520 H   0  0  0  0  0  0  0  0  0  0  0  0
   91.7430  119.6470  116.2040 H   0  0  0  0  0  0  0  0  0  0  0  0
   93.0440  118.9820  113.4920 H   0  0  0  0  0  0  0  0  0  0  0  0
   93.2740  118.1080  115.0440 H   0  0  0  0  0  0  0  0  0  0  0  0
   91.6910  116.9550  113.5480 H   0  0  0  0  0  0  0  0  0  0  0  0
   90.9210  117.4290  115.0950 H   0  0  0  0  0  0  0  0  0  0  0  0
   89.9780  117.0690  112.0070 H   0  0  0  0  0  0  0  0  0  0  0  0
   87.0940  119.6440  112.9910 H   0  0  0  0  0  0  0  0  0  0  0  0
   87.4470  120.5140  111.4580 H   0  0  0  0  0  0  0  0  0  0  0  0
   89.6520  121.1560  112.1890 H   0  0  0  0  0  0  0  0  0  0  0  0
   88.4760  121.6180  113.4560 H   0  0  0  0  0  0  0  0  0  0  0  0
   93.7410  121.1270  114.3940 H   0  0  0  0  0  0  0  0  0  0  0  0
   94.3330  119.7080  117.0130 H   0  0  0  0  0  0  0  0  0  0  0  0
   95.2140  119.6520  115.4270 H   0  0  0  0  0  0  0  0  0  0  0  0
   96.4150  121.5660  115.9840 H   0  0  0  0  0  0  0  0  0  0  0  0
   95.6780  121.4720  117.6200 H   0  0  0  0  0  0  0  0  0  0  0  0
   92.6240  121.9690  117.6480 C   0  0  0  0  0  0  0  0  0  0  0  0
   91.9980  122.7880  118.0340 H   0  0  0  0  0  0  0  0  0  0  0  0
   91.9860  121.0680  117.7390 H   0  0  0  0  0  0  0  0  0  0  0  0
   93.4720  121.8280  118.3490 H   0  0  0  0  0  0  0  0  0  0  0  0
   88.9000  119.5970  115.2350 C   0  0  0  0  0  0  0  0  0  0  0  0
   87.8790  120.0100  115.1130 H   0  0  0  0  0  0  0  0  0  0  0  0
   89.3140  120.0300  116.1680 H   0  0  0  0  0  0  0  0  0  0  0  0
   88.8280  118.5030  115.3990 H   0  0  0  0  0  0  0  0  0  0  0  0
   89.9540  122.1980  116.1590 O   0  0  0  0  0  0  0  0  0  0  0  0
   90.4430  121.8060  116.9190 H   0  0  0  0  0  0  0  0  0  0  0  0
   94.9540  123.2270  114.9050 O   0  0  0  0  0  0  0  0  0  0  0  0
   95.5060  124.0520  114.9590 H   0  0  0  0  0  0  0  0  0  0  0  0
   94.8000  123.9210  117.2240 C   0  0  0  0  0  0  0  0  0  0  0  0
   95.4120  123.7010  118.2590 O   0  0  0  0  0  0  0  0  0  0  0  0
   94.1430  125.2680  117.0550 C   0  0  0  0  0  0  0  0  0  0  0  0
   94.5340  125.9740  117.8200 H   0  0  0  0  0  0  0  0  0  0  0  0
   93.0490  125.1970  117.2190 H   0  0  0  0  0  0  0  0  0  0  0  0
   94.3740  125.7630  115.7650 O   0  0  0  0  0  0  0  0  0  0  0  0
   93.4950  125.7970  115.3080 H   0  0  0  0  0  0  0  0  0  0  0  0
  1 18  1  0  0  0  0
  1 38  1  1  0  0  0
  2 20  1  0  0  0  0
  2  1  1  0  0  0  0
  3 21  1  6  0  0  0
  3  2  1  0  0  0  0
  3 46  1  0  0  0  0
  4 22  1  6  0  0  0
  4  3  1  0  0  0  0
  4  5  1  0  0  0  0
  5 15  1  0  0  0  0
  5 23  1  1  0  0  0
  6 25  1  0  0  0  0
  6  5  1  0  0  0  0
  7  6  1  0  0  0  0
  7 27  1  0  0  0  0
  8 14  1  0  0  0  0
  8  7  1  0  0  0  0
  9  8  2  0  0  0  0
 10 12  1  0  0  0  0
 10  9  1  0  0  0  0
 11 10  2  0  0  0  0
 12 13  1  0  0  0  0
 12 29  1  0  0  0  0
 13 32  1  0  0  0  0
 13 14  1  0  0  0  0
 14  4  1  0  0  0  0
 14 42  1  1  0  0  0
 15 33  1  6  0  0  0
 15 16  1  0  0  0  0
 15  1  1  0  0  0  0
 16 17  1  0  0  0  0
 16 34  1  0  0  0  0
 17 37  1  0  0  0  0
 18 48  1  6  0  0  0
 18 17  1  0  0  0  0
 18 50  1  0  0  0  0
 19  2  1  0  0  0  0
 24  6  1  0  0  0  0
 26  7  1  0  0  0  0
 28  9  1  0  0  0  0
 30 12  1  0  0  0  0
 31 13  1  0  0  0  0
 35 16  1  0  0  0  0
 36 17  1  0  0  0  0
 38 40  1  0  0  0  0
 38 39  1  0  0  0  0
 38 41  1  0  0  0  0
 42 45  1  0  0  0  0
 42 44  1  0  0  0  0
 43 42  1  0  0  0  0
 46 47  1  0  0  0  0
 48 49  1  0  0  0  0
 50 51  2  0  0  0  0
 52 54  1  0  0  0  0
 52 50  1  0  0  0  0
 52 53  1  0  0  0  0
 55 52  1  0  0  0  0
 56 55  1  0  0  0  0
M  END
>  <MODEL>
1

>  <REMARK>
 VINA RESULT:      -9.3      0.000      0.000
  Name = CORTISOL
  7 active torsions:
  status: ('A' for Active; 'I' for Inactive)
    1  A    between atoms: C_1  and  C_2
    2  A    between atoms: C_4  and  O_5
    3  A    between atoms: C_16  and  C_17
    4  A    between atoms: C_21  and  O_22
    5  A    between atoms: C_21  and  C_23
    6  A    between atoms: C_23  and  C_25
    7  A    between atoms: C_25  and  O_26
                            x       y       z     vdW  Elec       q    Type
                         _______ _______ _______ _____ _____    ______ ____

>  <TORSDO>
F 7

>  <vina_affinity>
-9.3

>  <vina_rmsd_lb>
0.000

>  <vina_rmsd_ub>
0.000

$$$$
CORTISOL
 OpenBabel09042222203D

 56 59  0  0  1  0  0  0  0  0999 V2000
   91.0460  119.5560  114.8870 C   0  0  1  0  0  0  0  0  0  0  0  0
   90.3910  120.8250  114.2700 C   0  0  0  0  0  0  0  0  0  0  0  0
   91.2150  122.1190  114.5170 C   0  0  1  0  0  0  0  0  0  0  0  0
   91.6150  122.3180  116.0290 C   0  0  1  0  0  0  0  0  0  0  0  0
   92.2420  121.0320  116.6680 C   0  0  1  0  0  0  0  0  0  0  0  0
   92.3860  121.2180  118.1930 C   0  0  0  0  0  0  0  0  0  0  0  0
   93.2340  122.4390  118.5350 C   0  0  0  0  0  0  0  0  0  0  0  0
   92.6750  123.6790  117.8800 C   0  0  0  0  0  0  0  0  0  0  0  0
   92.6150  124.8170  118.5960 C   0  0  0  0  0  0  0  0  0  0  0  0
   92.2280  126.0960  117.9890 C   0  0  0  0  0  0  0  0  0  0  0  0
   92.1130  127.1210  118.7130 O   0  0  0  0  0  0  0  0  0  0  0  0
   92.0320  126.2030  116.5120 C   0  0  0  0  0  0  0  0  0  0  0  0
   91.5260  124.8740  115.9490 C   0  0  0  0  0  0  0  0  0  0  0  0
   92.4050  123.6500  116.3690 C   0  0  2  0  0  0  0  0  0  0  0  0
   91.2990  119.8340  116.3800 C   0  0  2  0  0  0  0  0  0  0  0  0
   91.6330  118.4670  116.9620 C   0  0  0  0  0  0  0  0  0  0  0  0
   90.7830  117.4840  116.1330 C   0  0  0  0  0  0  0  0  0  0  0  0
   90.1050  118.3050  114.9970 C   0  0  1  0  0  0  0  0  0  0  0  0
   89.3850  120.9870  114.7150 H   0  0  0  0  0  0  0  0  0  0  0  0
   90.2320  120.6860  113.1790 H   0  0  0  0  0  0  0  0  0  0  0  0
   90.5320  122.9520  114.2460 H   0  0  0  0  0  0  0  0  0  0  0  0
   90.6340  122.4350  116.5490 H   0  0  0  0  0  0  0  0  0  0  0  0
   93.2530  120.8460  116.2610 H   0  0  0  0  0  0  0  0  0  0  0  0
   91.3860  121.3300  118.6640 H   0  0  0  0  0  0  0  0  0  0  0  0
   92.8740  120.3240  118.6370 H   0  0  0  0  0  0  0  0  0  0  0  0
   93.2620  122.5400  119.6430 H   0  0  0  0  0  0  0  0  0  0  0  0
   94.2770  122.2810  118.1890 H   0  0  0  0  0  0  0  0  0  0  0  0
   92.8590  124.8120  119.6520 H   0  0  0  0  0  0  0  0  0  0  0  0
   92.9940  126.4870  116.0340 H   0  0  0  0  0  0  0  0  0  0  0  0
   91.2900  127.0000  116.2880 H   0  0  0  0  0  0  0  0  0  0  0  0
   90.4810  124.7300  116.3080 H   0  0  0  0  0  0  0  0  0  0  0  0
   91.4820  124.9640  114.8430 H   0  0  0  0  0  0  0  0  0  0  0  0
   90.3230  120.1180  116.8470 H   0  0  0  0  0  0  0  0  0  0  0  0
   92.7160  118.2480  116.8400 H   0  0  0  0  0  0  0  0  0  0  0  0
   91.3630  118.4120  118.0390 H   0  0  0  0  0  0  0  0  0  0  0  0
   90.0200  116.9920  116.7750 H   0  0  0  0  0  0  0  0  0  0  0  0
   91.4460  116.6900  115.7230 H   0  0  0  0  0  0  0  0  0  0  0  0
   92.3570  119.1680  114.1080 C   0  0  0  0  0  0  0  0  0  0  0  0
   92.1820  118.5390  113.2220 H   0  0  0  0  0  0  0  0  0  0  0  0
   92.8920  120.0560  113.7150 H   0  0  0  0  0  0  0  0  0  0  0  0
   93.0720  118.6350  114.7690 H   0  0  0  0  0  0  0  0  0  0  0  0
   93.7780  123.7410  115.6550 C   0  0  0  0  0  0  0  0  0  0  0  0
   94.6130  123.8110  116.3800 H   0  0  0  0  0  0  0  0  0  0  0  0
   93.8280  124.6470  115.0160 H   0  0  0  0  0  0  0  0  0  0  0  0
   93.9530  122.8740  114.9860 H   0  0  0  0  0  0  0  0  0  0  0  0
   92.2940  122.1940  113.6210 O   0  0  0  0  0  0  0  0  0  0  0  0
   91.9530  122.0550  112.7070 H   0  0  0  0  0  0  0  0  0  0  0  0
   88.8260  118.7030  115.4680 O   0  0  0  0  0  0  0  0  0  0  0  0
   88.2740  117.9060  115.6880 H   0  0  0  0  0  0  0  0  0  0  0  0
   89.9610  117.4880  113.7020 C   0  0  0  0  0  0  0  0  0  0  0  0
   89.1350  117.8150  112.8630 O   0  0  0  0  0  0  0  0  0  0  0  0
   90.7120  116.1960  113.4990 C   0  0  0  0  0  0  0  0  0  0  0  0
   91.4480  116.0580  114.3220 H   0  0  0  0  0  0  0  0  0  0  0  0
   91.2930  116.2210  112.5550 H   0  0  0  0  0  0  0  0  0  0  0  0
   89.8200  115.1170  113.4510 O   0  0  0  0  0  0  0  0  0  0  0  0
   89.5720  114.9070  114.3870 H   0  0  0  0  0  0  0  0  0  0  0  0
  1 38  1  6  0  0  0
  1 18  1  0  0  0  0
  1 15  1  0  0  0  0
  2  3  1  0  0  0  0
  2 19  1  0  0  0  0
  2  1  1  0  0  0  0
  3 21  1  6  0  0  0
  3  4  1  0  0  0  0
  4 14  1  0  0  0  0
  4 22  1  1  0  0  0
  4  5  1  0  0  0  0
  5 23  1  6  0  0  0
  5  6  1  0  0  0  0
  6  7  1  0  0  0  0
  6 25  1  0  0  0  0
  6 24  1  0  0  0  0
  7 26  1  0  0  0  0
  8  7  1  0  0  0  0
  8  9  2  0  0  0  0
  9 28  1  0  0  0  0
 10  9  1  0  0  0  0
 10 11  2  0  0  0  0
 12 10  1  0  0  0  0
 13 31  1  0  0  0  0
 13 14  1  0  0  0  0
 13 12  1  0  0  0  0
 14 42  1  6  0  0  0
 14  8  1  0  0  0  0
 15  5  1  0  0  0  0
 15 33  1  1  0  0  0
 15 16  1  0  0  0  0
 16 35  1  0  0  0  0
 17 36  1  0  0  0  0
 17 16  1  0  0  0  0
 18 50  1  6  0  0  0
 18 48  1  0  0  0  0
 18 17  1  0  0  0  0
 20  2  1  0  0  0  0
 27  7  1  0  0  0  0
 29 12  1  0  0  0  0
 30 12  1  0  0  0  0
 32 13  1  0  0  0  0
 34 16  1  0  0  0  0
 37 17  1  0  0  0  0
 38 41  1  0  0  0  0
 39 38  1  0  0  0  0
 40 38  1  0  0  0  0
 42 43  1  0  0  0  0
 44 42  1  0  0  0  0
 45 42  1  0  0  0  0
 46  3  1  0  0  0  0
 47 46  1  0  0  0  0
 48 49  1  0  0  0  0
 51 50  2  0  0  0  0
 52 50  1  0  0  0  0
 52 53  1  0  0  0  0
 54 52  1  0  0  0  0
 55 52  1  0  0  0  0
 55 56  1  0  0  0  0
M  END
>  <MODEL>
2

>  <REMARK>
 VINA RESULT:      -9.2      2.266      7.075
  Name = CORTISOL
  7 active torsions:
  status: ('A' for Active; 'I' for Inactive)
    1  A    between atoms: C_1  and  C_2
    2  A    between atoms: C_4  and  O_5
    3  A    between atoms: C_16  and  C_17
    4  A    between atoms: C_21  and  O_22
    5  A    between atoms: C_21  and  C_23
    6  A    between atoms: C_23  and  C_25
    7  A    between atoms: C_25  and  O_26
                            x       y       z     vdW  Elec       q    Type
                         _______ _______ _______ _____ _____    ______ ____

>  <TORSDO>
F 7

>  <vina_affinity>
-9.2

>  <vina_rmsd_lb>
2.266

>  <vina_rmsd_ub>
7.075

$$$$
CORTISONE
 OpenBabel09042222203D

 54 57  0  0  1  0  0  0  0  0999 V2000
   93.4570  123.7530  116.9380 C   0  0  1  0  0  0  0  0  0  0  0  0
   94.1860  122.5170  117.5270 C   0  0  0  0  0  0  0  0  0  0  0  0
   93.6670  121.2700  116.8380 C   0  0  0  0  0  0  0  0  0  0  0  0
   94.4490  120.5350  116.2540 O   0  0  0  0  0  0  0  0  0  0  0  0
   92.1590  121.0290  116.8280 C   0  0  1  0  0  0  0  0  0  0  0  0
   91.4360  122.2930  116.2560 C   0  0  1  0  0  0  0  0  0  0  0  0
   89.8880  122.1450  116.2350 C   0  0  0  0  0  0  0  0  0  0  0  0
   89.3560  120.8540  116.8710 C   0  0  0  0  0  0  0  0  0  0  0  0
   90.1200  119.6240  116.4290 C   0  0  0  0  0  0  0  0  0  0  0  0
   89.4800  118.4410  116.4380 C   0  0  0  0  0  0  0  0  0  0  0  0
   90.2080  117.1670  116.3310 C   0  0  0  0  0  0  0  0  0  0  0  0
   89.5610  116.0940  116.2030 O   0  0  0  0  0  0  0  0  0  0  0  0
   91.7060  117.1240  116.3830 C   0  0  0  0  0  0  0  0  0  0  0  0
   92.3000  118.4610  116.8570 C   0  0  0  0  0  0  0  0  0  0  0  0
   91.6310  119.6980  116.1810 C   0  0  2  0  0  0  0  0  0  0  0  0
   91.9290  123.5280  117.0590 C   0  0  2  0  0  0  0  0  0  0  0  0
   91.3190  124.8960  116.7700 C   0  0  0  0  0  0  0  0  0  0  0  0
   92.3710  125.9070  117.2670 C   0  0  0  0  0  0  0  0  0  0  0  0
   93.6130  125.0840  117.7340 C   0  0  1  0  0  0  0  0  0  0  0  0
   93.9890  122.4180  118.6150 H   0  0  0  0  0  0  0  0  0  0  0  0
   95.2850  122.6070  117.3870 H   0  0  0  0  0  0  0  0  0  0  0  0
   91.8900  120.9640  117.9090 H   0  0  0  0  0  0  0  0  0  0  0  0
   91.7390  122.4400  115.2010 H   0  0  0  0  0  0  0  0  0  0  0  0
   89.5420  122.1690  115.1780 H   0  0  0  0  0  0  0  0  0  0  0  0
   89.3900  122.9970  116.7410 H   0  0  0  0  0  0  0  0  0  0  0  0
   88.2780  120.7610  116.6110 H   0  0  0  0  0  0  0  0  0  0  0  0
   89.4260  120.9350  117.9770 H   0  0  0  0  0  0  0  0  0  0  0  0
   88.4110  118.4010  116.6150 H   0  0  0  0  0  0  0  0  0  0  0  0
   92.0250  116.3200  117.0810 H   0  0  0  0  0  0  0  0  0  0  0  0
   92.0990  116.8660  115.3780 H   0  0  0  0  0  0  0  0  0  0  0  0
   92.1680  118.5320  117.9600 H   0  0  0  0  0  0  0  0  0  0  0  0
   93.3900  118.4260  116.6610 H   0  0  0  0  0  0  0  0  0  0  0  0
   91.6830  123.3130  118.1280 H   0  0  0  0  0  0  0  0  0  0  0  0
   91.1360  125.0210  115.6800 H   0  0  0  0  0  0  0  0  0  0  0  0
   90.3620  125.0350  117.3170 H   0  0  0  0  0  0  0  0  0  0  0  0
   92.6130  126.5960  116.4300 H   0  0  0  0  0  0  0  0  0  0  0  0
   91.9580  126.5220  118.0960 H   0  0  0  0  0  0  0  0  0  0  0  0
   93.9320  123.9460  115.4560 C   0  0  0  0  0  0  0  0  0  0  0  0
   94.0740  122.9850  114.9240 H   0  0  0  0  0  0  0  0  0  0  0  0
   94.9220  124.4460  115.4260 H   0  0  0  0  0  0  0  0  0  0  0  0
   93.2240  124.5610  114.8650 H   0  0  0  0  0  0  0  0  0  0  0  0
   91.8820  119.6740  114.6490 C   0  0  0  0  0  0  0  0  0  0  0  0
   92.7240  120.3360  114.3650 H   0  0  0  0  0  0  0  0  0  0  0  0
   90.9810  119.9820  114.0830 H   0  0  0  0  0  0  0  0  0  0  0  0
   92.1240  118.6500  114.2970 H   0  0  0  0  0  0  0  0  0  0  0  0
   93.4840  124.8220  119.1160 O   0  0  0  0  0  0  0  0  0  0  0  0
   92.5680  124.4730  119.2760 H   0  0  0  0  0  0  0  0  0  0  0  0
   94.9490  125.7920  117.4850 C   0  0  0  0  0  0  0  0  0  0  0  0
   95.9870  125.3400  117.9470 O   0  0  0  0  0  0  0  0  0  0  0  0
   95.0150  127.0720  116.6970 C   0  0  0  0  0  0  0  0  0  0  0  0
   95.3610  127.9120  117.3360 H   0  0  0  0  0  0  0  0  0  0  0  0
   93.9950  127.3140  116.3230 H   0  0  0  0  0  0  0  0  0  0  0  0
   95.8910  126.9110  115.6180 O   0  0  0  0  0  0  0  0  0  0  0  0
   96.3950  126.0750  115.7950 H   0  0  0  0  0  0  0  0  0  0  0  0
  1 38  1  6  0  0  0
  1 16  1  0  0  0  0
  1  2  1  0  0  0  0
  1 19  1  0  0  0  0
  2 20  1  0  0  0  0
  3  2  1  0  0  0  0
  4  3  2  0  0  0  0
  5  3  1  0  0  0  0
  5 22  1  1  0  0  0
  6 23  1  6  0  0  0
  6  5  1  0  0  0  0
  6 16  1  0  0  0  0
  7  6  1  0  0  0  0
  7 25  1  0  0  0  0
  7  8  1  0  0  0  0
  8 27  1  0  0  0  0
  9 10  2  0  0  0  0
  9  8  1  0  0  0  0
 10 28  1  0  0  0  0
 11 13  1  0  0  0  0
 11 10  1  0  0  0  0
 12 11  2  0  0  0  0
 13 14  1  0  0  0  0
 13 29  1  0  0  0  0
 14 31  1  0  0  0  0
 15 42  1  6  0  0  0
 15  9  1  0  0  0  0
 15  5  1  0  0  0  0
 15 14  1  0  0  0  0
 16 33  1  1  0  0  0
 17 16  1  0  0  0  0
 17 18  1  0  0  0  0
 17 35  1  0  0  0  0
 18 19  1  0  0  0  0
 18 37  1  0  0  0  0
 19 48  1  6  0  0  0
 19 46  1  0  0  0  0
 21  2  1  0  0  0  0
 24  7  1  0  0  0  0
 26  8  1  0  0  0  0
 30 13  1  0  0  0  0
 32 14  1  0  0  0  0
 34 17  1  0  0  0  0
 36 18  1  0  0  0  0
 39 38  1  0  0  0  0
 40 38  1  0  0  0  0
 41 38  1  0  0  0  0
 43 42  1  0  0  0  0
 44 42  1  0  0  0  0
 45 42  1  0  0  0  0
 46 47  1  0  0  0  0
 48 49  2  0  0  0  0
 50 51  1  0  0  0  0
 50 48  1  0  0  0  0
 52 50  1  0  0  0  0
 53 54  1  0  0  0  0
 53 50  1  0  0  0  0
M  END
>  <MODEL>
1

>  <REMARK>
 VINA RESULT:      -9.5      0.000      0.000
  Name = CORTISONE
  6 active torsions:
  status: ('A' for Active; 'I' for Inactive)
    1  A    between atoms: C_1  and  C_2
    2  A    between atoms: C_16  and  C_17
    3  A    between atoms: C_21  and  O_22
    4  A    between atoms: C_21  and  C_23
    5  A    between atoms: C_23  and  C_25
    6  A    between atoms: C_25  and  O_26
                            x       y       z     vdW  Elec       q    Type
                         _______ _______ _______ _____ _____    ______ ____

>  <TORSDO>
F 6

>  <vina_affinity>
-9.5

>  <vina_rmsd_lb>
0.000

>  <vina_rmsd_ub>
0.000

$$$$
CORTISONE
 OpenBabel09042222203D

 54 57  0  0  1  0  0  0  0  0999 V2000
   91.0580  119.9170  114.5580 C   0  0  1  0  0  0  0  0  0  0  0  0
   91.3750  121.1390  113.6570 C   0  0  0  0  0  0  0  0  0  0  0  0
   92.7260  121.7010  114.0530 C   0  0  0  0  0  0  0  0  0  0  0  0
   93.6130  121.7840  113.2170 O   0  0  0  0  0  0  0  0  0  0  0  0
   92.9510  122.0640  115.5200 C   0  0  1  0  0  0  0  0  0  0  0  0
   92.6040  120.8300  116.4170 C   0  0  1  0  0  0  0  0  0  0  0  0
   92.7800  121.1200  117.9360 C   0  0  0  0  0  0  0  0  0  0  0  0
   93.1480  122.5690  118.2750 C   0  0  0  0  0  0  0  0  0  0  0  0
   94.2460  123.1200  117.3900 C   0  0  0  0  0  0  0  0  0  0  0  0
   95.0280  124.0980  117.8810 C   0  0  0  0  0  0  0  0  0  0  0  0
   95.9000  124.9010  117.0110 C   0  0  0  0  0  0  0  0  0  0  0  0
   96.7160  125.7090  117.5280 O   0  0  0  0  0  0  0  0  0  0  0  0
   95.8260  124.7820  115.5170 C   0  0  0  0  0  0  0  0  0  0  0  0
   94.5780  124.0040  115.0680 C   0  0  0  0  0  0  0  0  0  0  0  0
   94.3250  122.7170  115.9130 C   0  0  2  0  0  0  0  0  0  0  0  0
   91.1750  120.3540  116.0390 C   0  0  2  0  0  0  0  0  0  0  0  0
   90.5390  119.2100  116.8240 C   0  0  0  0  0  0  0  0  0  0  0  0
   89.4650  118.6360  115.8800 C   0  0  0  0  0  0  0  0  0  0  0  0
   89.5860  119.4050  114.5260 C   0  0  1  0  0  0  0  0  0  0  0  0
   90.6150  121.9390  113.7880 H   0  0  0  0  0  0  0  0  0  0  0  0
   91.3780  120.8450  112.5850 H   0  0  0  0  0  0  0  0  0  0  0  0
   92.1790  122.8420  115.7270 H   0  0  0  0  0  0  0  0  0  0  0  0
   93.3020  120.0020  116.1860 H   0  0  0  0  0  0  0  0  0  0  0  0
   93.5850  120.4640  118.3330 H   0  0  0  0  0  0  0  0  0  0  0  0
   91.8660  120.8640  118.5080 H   0  0  0  0  0  0  0  0  0  0  0  0
   93.4510  122.6060  119.3460 H   0  0  0  0  0  0  0  0  0  0  0  0
   92.2480  123.2120  118.1630 H   0  0  0  0  0  0  0  0  0  0  0  0
   94.9630  124.3740  118.9280 H   0  0  0  0  0  0  0  0  0  0  0  0
   95.7980  125.7990  115.0700 H   0  0  0  0  0  0  0  0  0  0  0  0
   96.7440  124.2810  115.1450 H   0  0  0  0  0  0  0  0  0  0  0  0
   93.6950  124.6770  115.1540 H   0  0  0  0  0  0  0  0  0  0  0  0
   94.7050  123.7700  113.9920 H   0  0  0  0  0  0  0  0  0  0  0  0
   90.5070  121.2340  116.2070 H   0  0  0  0  0  0  0  0  0  0  0  0
   91.2990  118.4370  117.0730 H   0  0  0  0  0  0  0  0  0  0  0  0
   90.0720  119.5760  117.7640 H   0  0  0  0  0  0  0  0  0  0  0  0
   89.6490  117.5480  115.7640 H   0  0  0  0  0  0  0  0  0  0  0  0
   88.4520  118.7570  116.3240 H   0  0  0  0  0  0  0  0  0  0  0  0
   92.0460  118.7580  114.1820 C   0  0  0  0  0  0  0  0  0  0  0  0
   93.0840  119.1140  114.0290 H   0  0  0  0  0  0  0  0  0  0  0  0
   91.7520  118.2920  113.2190 H   0  0  0  0  0  0  0  0  0  0  0  0
   92.0690  117.9600  114.9510 H   0  0  0  0  0  0  0  0  0  0  0  0
   95.5000  121.7180  115.7350 C   0  0  0  0  0  0  0  0  0  0  0  0
   95.5670  121.3520  114.6910 H   0  0  0  0  0  0  0  0  0  0  0  0
   95.4000  120.8460  116.4110 H   0  0  0  0  0  0  0  0  0  0  0  0
   96.4710  122.1890  115.9930 H   0  0  0  0  0  0  0  0  0  0  0  0
   88.7050  120.5080  114.5560 O   0  0  0  0  0  0  0  0  0  0  0  0
   88.9120  121.0420  115.3680 H   0  0  0  0  0  0  0  0  0  0  0  0
   89.2650  118.5450  113.2990 C   0  0  0  0  0  0  0  0  0  0  0  0
   89.5170  117.3490  113.2950 O   0  0  0  0  0  0  0  0  0  0  0  0
   88.6630  119.1530  112.0620 C   0  0  0  0  0  0  0  0  0  0  0  0
   88.8050  118.4870  111.1840 H   0  0  0  0  0  0  0  0  0  0  0  0
   89.1730  120.1190  111.8540 H   0  0  0  0  0  0  0  0  0  0  0  0
   87.2950  119.3720  112.2680 O   0  0  0  0  0  0  0  0  0  0  0  0
   87.0720  120.2010  111.7710 H   0  0  0  0  0  0  0  0  0  0  0  0
  1 38  1  6  0  0  0
  1 16  1  0  0  0  0
  2 20  1  0  0  0  0
  2  3  1  0  0  0  0
  2  1  1  0  0  0  0
  3  5  1  0  0  0  0
  4  3  2  0  0  0  0
  5 22  1  1  0  0  0
  5 15  1  0  0  0  0
  5  6  1  0  0  0  0
  6 23  1  6  0  0  0
  6  7  1  0  0  0  0
  7  8  1  0  0  0  0
  7 24  1  0  0  0  0
  7 25  1  0  0  0  0
  8 26  1  0  0  0  0
  9 10  2  0  0  0  0
  9  8  1  0  0  0  0
 10 28  1  0  0  0  0
 11 12  2  0  0  0  0
 11 10  1  0  0  0  0
 13 11  1  0  0  0  0
 14 31  1  0  0  0  0
 14 13  1  0  0  0  0
 14 15  1  0  0  0  0
 15 42  1  6  0  0  0
 15  9  1  0  0  0  0
 16 33  1  1  0  0  0
 16  6  1  0  0  0  0
 16 17  1  0  0  0  0
 17 34  1  0  0  0  0
 17 35  1  0  0  0  0
 18 37  1  0  0  0  0
 18 17  1  0  0  0  0
 19 48  1  6  0  0  0
 19 46  1  0  0  0  0
 19  1  1  0  0  0  0
 19 18  1  0  0  0  0
 21  2  1  0  0  0  0
 27  8  1  0  0  0  0
 29 13  1  0  0  0  0
 30 13  1  0  0  0  0
 32 14  1  0  0  0  0
 36 18  1  0  0  0  0
 38 41  1  0  0  0  0
 39 38  1  0  0  0  0
 40 38  1  0  0  0  0
 42 45  1  0  0  0  0
 42 44  1  0  0  0  0
 43 42  1  0  0  0  0
 46 47  1  0  0  0  0
 49 48  2  0  0  0  0
 50 53  1  0  0  0  0
 50 48  1  0  0  0  0
 51 50  1  0  0  0  0
 52 50  1  0  0  0  0
 54 53  1  0  0  0  0
M  END
>  <MODEL>
2

>  <REMARK>
 VINA RESULT:      -9.4      2.346      7.207
  Name = CORTISONE
  6 active torsions:
  status: ('A' for Active; 'I' for Inactive)
    1  A    between atoms: C_1  and  C_2
    2  A    between atoms: C_16  and  C_17
    3  A    between atoms: C_21  and  O_22
    4  A    between atoms: C_21  and  C_23
    5  A    between atoms: C_23  and  C_25
    6  A    between atoms: C_25  and  O_26
                            x       y       z     vdW  Elec       q    Type
                         _______ _______ _______ _____ _____    ______ ____

>  <TORSDO>
F 6

>  <vina_affinity>
-9.4

>  <vina_rmsd_lb>
2.346

>  <vina_rmsd_ub>
7.207

$$$$
11-DEOXYCORTISOL
 OpenBabel09042222203D

 55 58  0  0  1  0  0  0  0  0999 V2000
   90.7840  119.7080  115.0260 C   0  0  1  0  0  0  0  0  0  0  0  0
   89.9730  120.9480  114.5630 C   0  0  0  0  0  0  0  0  0  0  0  0
   90.7580  122.2650  114.7810 C   0  0  0  0  0  0  0  0  0  0  0  0
   91.2440  122.4190  116.2540 C   0  0  1  0  0  0  0  0  0  0  0  0
   92.0450  121.1620  116.7350 C   0  0  1  0  0  0  0  0  0  0  0  0
   92.5520  121.3020  118.2010 C   0  0  0  0  0  0  0  0  0  0  0  0
   92.0780  122.5650  118.9340 C   0  0  0  0  0  0  0  0  0  0  0  0
   92.2120  123.8170  118.0940 C   0  0  0  0  0  0  0  0  0  0  0  0
   92.3470  124.9970  118.7260 C   0  0  0  0  0  0  0  0  0  0  0  0
   92.2050  126.2770  118.0170 C   0  0  0  0  0  0  0  0  0  0  0  0
   92.4590  127.3510  118.6240 O   0  0  0  0  0  0  0  0  0  0  0  0
   91.7640  126.3270  116.5850 C   0  0  0  0  0  0  0  0  0  0  0  0
   91.1710  124.9850  116.1230 C   0  0  0  0  0  0  0  0  0  0  0  0
   92.0110  123.7530  116.5760 C   0  0  2  0  0  0  0  0  0  0  0  0
   91.1590  119.9140  116.5090 C   0  0  2  0  0  0  0  0  0  0  0  0
   91.6670  118.5500  116.9650 C   0  0  0  0  0  0  0  0  0  0  0  0
   90.8650  117.5340  116.1290 C   0  0  0  0  0  0  0  0  0  0  0  0
   90.0090  118.3470  115.1120 C   0  0  1  0  0  0  0  0  0  0  0  0
   89.0260  121.0390  115.1360 H   0  0  0  0  0  0  0  0  0  0  0  0
   89.7040  120.8500  113.4880 H   0  0  0  0  0  0  0  0  0  0  0  0
   91.6070  122.3350  114.0730 H   0  0  0  0  0  0  0  0  0  0  0  0
   90.0630  123.0910  114.5270 H   0  0  0  0  0  0  0  0  0  0  0  0
   90.3050  122.4540  116.8550 H   0  0  0  0  0  0  0  0  0  0  0  0
   92.9530  121.0460  116.1140 H   0  0  0  0  0  0  0  0  0  0  0  0
   92.2620  120.4280  118.8190 H   0  0  0  0  0  0  0  0  0  0  0  0
   93.6650  121.3140  118.1940 H   0  0  0  0  0  0  0  0  0  0  0  0
   91.0110  122.4420  119.2190 H   0  0  0  0  0  0  0  0  0  0  0  0
   92.6660  122.6590  119.8730 H   0  0  0  0  0  0  0  0  0  0  0  0
   92.4840  125.0240  119.8010 H   0  0  0  0  0  0  0  0  0  0  0  0
   90.9950  127.1200  116.4670 H   0  0  0  0  0  0  0  0  0  0  0  0
   92.6290  126.6050  115.9460 H   0  0  0  0  0  0  0  0  0  0  0  0
   91.0930  125.0210  115.0160 H   0  0  0  0  0  0  0  0  0  0  0  0
   90.1390  124.8980  116.5310 H   0  0  0  0  0  0  0  0  0  0  0  0
   90.2220  120.0940  117.0920 H   0  0  0  0  0  0  0  0  0  0  0  0
   91.4810  118.3910  118.0490 H   0  0  0  0  0  0  0  0  0  0  0  0
   92.7560  118.4520  116.7640 H   0  0  0  0  0  0  0  0  0  0  0  0
   90.2160  116.9150  116.7890 H   0  0  0  0  0  0  0  0  0  0  0  0
   91.5810  116.8440  115.6360 H   0  0  0  0  0  0  0  0  0  0  0  0
   92.0330  119.5460  114.0890 C   0  0  0  0  0  0  0  0  0  0  0  0
   92.3120  120.4680  113.5480 H   0  0  0  0  0  0  0  0  0  0  0  0
   92.9330  119.2170  114.6460 H   0  0  0  0  0  0  0  0  0  0  0  0
   91.8240  118.7910  113.3010 H   0  0  0  0  0  0  0  0  0  0  0  0
   93.4010  123.7950  115.8880 C   0  0  0  0  0  0  0  0  0  0  0  0
   93.7960  124.8300  115.8420 H   0  0  0  0  0  0  0  0  0  0  0  0
   93.3440  123.4050  114.8500 H   0  0  0  0  0  0  0  0  0  0  0  0
   94.1580  123.2130  116.4480 H   0  0  0  0  0  0  0  0  0  0  0  0
   88.7390  118.5190  115.7120 O   0  0  0  0  0  0  0  0  0  0  0  0
   88.0640  118.6870  115.0080 H   0  0  0  0  0  0  0  0  0  0  0  0
   89.8660  117.6080  113.7690 C   0  0  0  0  0  0  0  0  0  0  0  0
   89.0710  118.0160  112.9330 O   0  0  0  0  0  0  0  0  0  0  0  0
   90.6700  116.3680  113.4590 C   0  0  0  0  0  0  0  0  0  0  0  0
   91.5300  116.3120  114.1570 H   0  0  0  0  0  0  0  0  0  0  0  0
   91.0660  116.4220  112.4200 H   0  0  0  0  0  0  0  0  0  0  0  0
   89.8990  115.2060  113.6220 O   0  0  0  0  0  0  0  0  0  0  0  0
   90.5330  114.4420  113.6260 H   0  0  0  0  0  0  0  0  0  0  0  0
  1 39  1  6  0  0  0
  1 18  1  0  0  0  0
  1 15  1  0  0  0  0
  2  3  1  0  0  0  0
  2  1  1  0  0  0  0
  2 19  1  0  0  0  0
  3  4  1  0  0  0  0
  4 14  1  0  0  0  0
  4  5  1  0  0  0  0
  4 23  1  1  0  0  0
  5 24  1  6  0  0  0
  5  6  1  0  0  0  0
  6 25  1  0  0  0  0
  6  7  1  0  0  0  0
  7 27  1  0  0  0  0
  7 28  1  0  0  0  0
  8  9  2  0  0  0  0
  8  7  1  0  0  0  0
  9 29  1  0  0  0  0
 10 11  2  0  0  0  0
 10  9  1  0  0  0  0
 12 10  1  0  0  0  0
 13 33  1  0  0  0  0
 13 14  1  0  0  0  0
 13 12  1  0  0  0  0
 14 43  1  6  0  0  0
 14  8  1  0  0  0  0
 15  5  1  0  0  0  0
 15 16  1  0  0  0  0
 15 34  1  1  0  0  0
 16 35  1  0  0  0  0
 17 37  1  0  0  0  0
 17 16  1  0  0  0  0
 18 49  1  6  0  0  0
 18 47  1  0  0  0  0
 18 17  1  0  0  0  0
 20  2  1  0  0  0  0
 21  3  1  0  0  0  0
 22  3  1  0  0  0  0
 26  6  1  0  0  0  0
 30 12  1  0  0  0  0
 31 12  1  0  0  0  0
 32 13  1  0  0  0  0
 36 16  1  0  0  0  0
 38 17  1  0  0  0  0
 39 41  1  0  0  0  0
 40 39  1  0  0  0  0
 42 39  1  0  0  0  0
 43 46  1  0  0  0  0
 44 43  1  0  0  0  0
 45 43  1  0  0  0  0
 48 47  1  0  0  0  0
 50 49  2  0  0  0  0
 51 54  1  0  0  0  0
 51 49  1  0  0  0  0
 51 52  1  0  0  0  0
 53 51  1  0  0  0  0
 54 55  1  0  0  0  0
M  END
>  <MODEL>
1

>  <REMARK>
 VINA RESULT:      -9.5      0.000      0.000
  Name = 11-DEOXYCORTISOL
  6 active torsions:
  status: ('A' for Active; 'I' for Inactive)
    1  A    between atoms: C_1  and  C_2
    2  A    between atoms: C_15  and  C_16
    3  A    between atoms: C_20  and  O_21
    4  A    between atoms: C_20  and  C_22
    5  A    between atoms: C_22  and  C_24
    6  A    between atoms: C_24  and  O_25
                            x       y       z     vdW  Elec       q    Type
                         _______ _______ _______ _____ _____    ______ ____

>  <TORSDO>
F 6

>  <vina_affinity>
-9.5

>  <vina_rmsd_lb>
0.000

>  <vina_rmsd_ub>
0.000

$$$$
11-DEOXYCORTISOL
 OpenBabel09042222203D

 55 58  0  0  1  0  0  0  0  0999 V2000
   94.6120  123.5750  116.5010 C   0  0  1  0  0  0  0  0  0  0  0  0
   95.2590  122.1870  116.7500 C   0  0  0  0  0  0  0  0  0  0  0  0
   94.4650  121.0490  116.0610 C   0  0  0  0  0  0  0  0  0  0  0  0
   92.9600  121.0580  116.4650 C   0  0  1  0  0  0  0  0  0  0  0  0
   92.3060  122.4630  116.2370 C   0  0  1  0  0  0  0  0  0  0  0  0
   90.7970  122.4880  116.6210 C   0  0  0  0  0  0  0  0  0  0  0  0
   90.2680  121.1960  117.2590 C   0  0  0  0  0  0  0  0  0  0  0  0
   90.7120  119.9520  116.5210 C   0  0  0  0  0  0  0  0  0  0  0  0
   89.9490  118.8490  116.6130 C   0  0  0  0  0  0  0  0  0  0  0  0
   90.4300  117.5320  116.1690 C   0  0  0  0  0  0  0  0  0  0  0  0
   89.6370  116.5540  116.1630 O   0  0  0  0  0  0  0  0  0  0  0  0
   91.8490  117.3340  115.7260 C   0  0  0  0  0  0  0  0  0  0  0  0
   92.7440  118.5190  116.1250 C   0  0  0  0  0  0  0  0  0  0  0  0
   92.0880  119.9060  115.8450 C   0  0  2  0  0  0  0  0  0  0  0  0
   93.1520  123.5130  116.9960 C   0  0  2  0  0  0  0  0  0  0  0  0
   92.6920  124.9680  117.0080 C   0  0  0  0  0  0  0  0  0  0  0  0
   93.9630  125.7770  117.3280 C   0  0  0  0  0  0  0  0  0  0  0  0
   95.1540  124.7730  117.3590 C   0  0  1  0  0  0  0  0  0  0  0  0
   95.2840  121.9490  117.8350 H   0  0  0  0  0  0  0  0  0  0  0  0
   96.3090  122.1820  116.3830 H   0  0  0  0  0  0  0  0  0  0  0  0
   94.5820  121.1030  114.9610 H   0  0  0  0  0  0  0  0  0  0  0  0
   94.9350  120.0980  116.3830 H   0  0  0  0  0  0  0  0  0  0  0  0
   92.9660  120.8790  117.5660 H   0  0  0  0  0  0  0  0  0  0  0  0
   92.3450  122.7150  115.1600 H   0  0  0  0  0  0  0  0  0  0  0  0
   90.5670  123.3220  117.3160 H   0  0  0  0  0  0  0  0  0  0  0  0
   90.1990  122.6830  115.7040 H   0  0  0  0  0  0  0  0  0  0  0  0
   90.6270  121.1330  118.3080 H   0  0  0  0  0  0  0  0  0  0  0  0
   89.1580  121.2570  117.2890 H   0  0  0  0  0  0  0  0  0  0  0  0
   88.9800  118.8990  117.0960 H   0  0  0  0  0  0  0  0  0  0  0  0
   92.2510  116.4070  116.1890 H   0  0  0  0  0  0  0  0  0  0  0  0
   91.8690  117.1900  114.6250 H   0  0  0  0  0  0  0  0  0  0  0  0
   93.6970  118.4170  115.5660 H   0  0  0  0  0  0  0  0  0  0  0  0
   92.9770  118.4330  117.2100 H   0  0  0  0  0  0  0  0  0  0  0  0
   93.1500  123.1910  118.0670 H   0  0  0  0  0  0  0  0  0  0  0  0
   91.9180  125.1410  117.7850 H   0  0  0  0  0  0  0  0  0  0  0  0
   92.2820  125.2560  116.0150 H   0  0  0  0  0  0  0  0  0  0  0  0
   93.8560  126.2960  118.3070 H   0  0  0  0  0  0  0  0  0  0  0  0
   94.0820  126.5630  116.5530 H   0  0  0  0  0  0  0  0  0  0  0  0
   94.7350  123.9210  114.9750 C   0  0  0  0  0  0  0  0  0  0  0  0
   95.0830  124.9490  114.7740 H   0  0  0  0  0  0  0  0  0  0  0  0
   95.4300  123.2370  114.4470 H   0  0  0  0  0  0  0  0  0  0  0  0
   93.7410  123.8430  114.4850 H   0  0  0  0  0  0  0  0  0  0  0  0
   91.8990  120.0890  114.3170 C   0  0  0  0  0  0  0  0  0  0  0  0
   91.2590  120.9660  114.0930 H   0  0  0  0  0  0  0  0  0  0  0  0
   91.4230  119.1940  113.8630 H   0  0  0  0  0  0  0  0  0  0  0  0
   92.8600  120.2830  113.8010 H   0  0  0  0  0  0  0  0  0  0  0  0
   95.3210  124.3980  118.7130 O   0  0  0  0  0  0  0  0  0  0  0  0
   95.7300  123.4970  118.7560 H   0  0  0  0  0  0  0  0  0  0  0  0
   96.4490  125.4070  116.8200 C   0  0  0  0  0  0  0  0  0  0  0  0
   97.4690  124.7350  116.7420 O   0  0  0  0  0  0  0  0  0  0  0  0
   96.5050  126.8580  116.4030 C   0  0  0  0  0  0  0  0  0  0  0  0
   97.4590  127.2990  116.7590 H   0  0  0  0  0  0  0  0  0  0  0  0
   95.6650  127.4200  116.8690 H   0  0  0  0  0  0  0  0  0  0  0  0
   96.4580  126.9890  115.0060 O   0  0  0  0  0  0  0  0  0  0  0  0
   97.3450  126.6980  114.6640 H   0  0  0  0  0  0  0  0  0  0  0  0
  1 39  1  6  0  0  0
  1  2  1  0  0  0  0
  1 15  1  0  0  0  0
  1 18  1  0  0  0  0
  2 19  1  0  0  0  0
  3 22  1  0  0  0  0
  3  4  1  0  0  0  0
  3  2  1  0  0  0  0
  4 23  1  1  0  0  0
  5 24  1  6  0  0  0
  5  4  1  0  0  0  0
  5  6  1  0  0  0  0
  5 15  1  0  0  0  0
  6  7  1  0  0  0  0
  6 25  1  0  0  0  0
  7 28  1  0  0  0  0
  7 27  1  0  0  0  0
  8  9  2  0  0  0  0
  8  7  1  0  0  0  0
  9 29  1  0  0  0  0
 10  9  1  0  0  0  0
 11 10  2  0  0  0  0
 12 13  1  0  0  0  0
 12 10  1  0  0  0  0
 12 30  1  0  0  0  0
 13 33  1  0  0  0  0
 14 43  1  6  0  0  0
 14 13  1  0  0  0  0
 14  4  1  0  0  0  0
 14  8  1  0  0  0  0
 15 16  1  0  0  0  0
 15 34  1  1  0  0  0
 16 17  1  0  0  0  0
 16 35  1  0  0  0  0
 17 18  1  0  0  0  0
 17 37  1  0  0  0  0
 18 49  1  6  0  0  0
 18 47  1  0  0  0  0
 20  2  1  0  0  0  0
 21  3  1  0  0  0  0
 26  6  1  0  0  0  0
 31 12  1  0  0  0  0
 32 13  1  0  0  0  0
 36 16  1  0  0  0  0
 38 17  1  0  0  0  0
 40 39  1  0  0  0  0
 41 39  1  0  0  0  0
 42 39  1  0  0  0  0
 44 43  1  0  0  0  0
 45 43  1  0  0  0  0
 46 43  1  0  0  0  0
 47 48  1  0  0  0  0
 50 49  2  0  0  0  0
 51 52  1  0  0  0  0
 51 49  1  0  0  0  0
 51 53  1  0  0  0  0
 54 51  1  0  0  0  0
 55 54  1  0  0  0  0
M  END
>  <MODEL>
2

>  <REMARK>
 VINA RESULT:      -9.3      2.551      7.619
  Name = 11-DEOXYCORTISOL
  6 active torsions:
  status: ('A' for Active; 'I' for Inactive)
    1  A    between atoms: C_1  and  C_2
    2  A    between atoms: C_15  and  C_16
    3  A    between atoms: C_20  and  O_21
    4  A    between atoms: C_20  and  C_22
    5  A    between atoms: C_22  and  C_24
    6  A    between atoms: C_24  and  O_25
                            x       y       z     vdW  Elec       q    Type
                         _______ _______ _______ _____ _____    ______ ____

>  <TORSDO>
F 6

>  <vina_affinity>
-9.3

>  <vina_rmsd_lb>
2.551

>  <vina_rmsd_ub>
7.619

$$$$
METHYLPREDNISOLON
 OpenBabel09042222203D

 57 60  0  0  1  0  0  0  0  0999 V2000
   90.3160  117.2750  113.8820 C   0  0  1  0  0  0  0  0  0  0  0  0
   91.6310  117.9950  114.2060 C   0  0  0  0  0  0  0  0  0  0  0  0
   91.3890  119.4030  114.8000 C   0  0  1  0  0  0  0  0  0  0  0  0
   92.7420  120.1330  114.9930 C   0  0  2  0  0  0  0  0  0  0  0  0
   93.8380  119.4380  115.7830 C   0  0  0  0  0  0  0  0  0  0  0  0
   94.8150  120.5650  116.1560 C   0  0  0  0  0  0  0  0  0  0  0  0
   94.1570  121.9170  115.7250 C   0  0  2  0  0  0  0  0  0  0  0  0
   92.6330  121.5320  115.6240 C   0  0  1  0  0  0  0  0  0  0  0  0
   91.7580  122.4050  114.6760 C   0  0  0  0  0  0  0  0  0  0  0  0
   90.3910  121.7680  114.2980 C   0  0  1  0  0  0  0  0  0  0  0  0
   90.5000  120.2660  113.8380 C   0  0  2  0  0  0  0  0  0  0  0  0
   89.1470  119.5610  113.4260 C   0  0  1  0  0  0  0  0  0  0  0  0
   88.4450  120.4100  112.3650 C   0  0  0  0  0  0  0  0  0  0  0  0
   88.1320  119.9670  111.1500 C   0  0  0  0  0  0  0  0  0  0  0  0
   88.4740  118.6080  110.7480 C   0  0  0  0  0  0  0  0  0  0  0  0
   88.1680  118.1940  109.5990 O   0  0  0  0  0  0  0  0  0  0  0  0
   89.1800  117.7330  111.6810 C   0  0  0  0  0  0  0  0  0  0  0  0
   89.5040  118.1460  112.9250 C   0  0  0  0  0  0  0  0  0  0  0  0
   89.7410  117.1640  114.8250 H   0  0  0  0  0  0  0  0  0  0  0  0
   92.2450  118.0760  113.2800 H   0  0  0  0  0  0  0  0  0  0  0  0
   92.2000  117.3850  114.9410 H   0  0  0  0  0  0  0  0  0  0  0  0
   90.8840  119.2620  115.7740 H   0  0  0  0  0  0  0  0  0  0  0  0
   93.1630  120.2550  113.9630 H   0  0  0  0  0  0  0  0  0  0  0  0
   94.3450  118.6590  115.1710 H   0  0  0  0  0  0  0  0  0  0  0  0
   93.4150  118.9680  116.6990 H   0  0  0  0  0  0  0  0  0  0  0  0
   95.7910  120.4180  115.6420 H   0  0  0  0  0  0  0  0  0  0  0  0
   95.0050  120.5010  117.2490 H   0  0  0  0  0  0  0  0  0  0  0  0
   92.3000  122.5860  113.7240 H   0  0  0  0  0  0  0  0  0  0  0  0
   91.5640  123.3990  115.1300 H   0  0  0  0  0  0  0  0  0  0  0  0
   90.0440  122.3500  113.4190 H   0  0  0  0  0  0  0  0  0  0  0  0
   91.0770  120.3220  112.8850 H   0  0  0  0  0  0  0  0  0  0  0  0
   88.1300  121.4130  112.6240 H   0  0  0  0  0  0  0  0  0  0  0  0
   87.6120  120.6170  110.4570 H   0  0  0  0  0  0  0  0  0  0  0  0
   89.4440  116.7500  111.3200 H   0  0  0  0  0  0  0  0  0  0  0  0
   90.6060  115.8430  113.4010 C   0  0  0  0  0  0  0  0  0  0  0  0
   89.7120  115.3950  112.9180 H   0  0  0  0  0  0  0  0  0  0  0  0
   91.4320  115.8530  112.6580 H   0  0  0  0  0  0  0  0  0  0  0  0
   90.9310  115.2080  114.2520 H   0  0  0  0  0  0  0  0  0  0  0  0
   92.0240  121.5140  117.0670 C   0  0  0  0  0  0  0  0  0  0  0  0
   92.3660  120.6140  117.6210 H   0  0  0  0  0  0  0  0  0  0  0  0
   90.9150  121.4810  117.0500 H   0  0  0  0  0  0  0  0  0  0  0  0
   92.2650  122.3980  117.6750 H   0  0  0  0  0  0  0  0  0  0  0  0
   88.1400  119.4080  114.5930 C   0  0  0  0  0  0  0  0  0  0  0  0
   88.6720  119.0840  115.5150 H   0  0  0  0  0  0  0  0  0  0  0  0
   87.3770  118.6290  114.3840 H   0  0  0  0  0  0  0  0  0  0  0  0
   87.6120  120.3540  114.8230 H   0  0  0  0  0  0  0  0  0  0  0  0
   94.6890  122.2320  114.4540 O   0  0  0  0  0  0  0  0  0  0  0  0
   94.4980  123.1790  114.2400 H   0  0  0  0  0  0  0  0  0  0  0  0
   94.4740  123.0550  116.7190 C   0  0  0  0  0  0  0  0  0  0  0  0
   95.1190  122.8230  117.7310 O   0  0  0  0  0  0  0  0  0  0  0  0
   94.0290  124.4780  116.4890 C   0  0  0  0  0  0  0  0  0  0  0  0
   92.9330  124.5820  116.5770 H   0  0  0  0  0  0  0  0  0  0  0  0
   94.4860  125.1370  117.2610 H   0  0  0  0  0  0  0  0  0  0  0  0
   94.3970  124.8970  115.2030 O   0  0  0  0  0  0  0  0  0  0  0  0
   93.5560  125.0890  114.7110 H   0  0  0  0  0  0  0  0  0  0  0  0
   89.4400  121.9990  115.3080 O   0  0  0  0  0  0  0  0  0  0  0  0
   89.0950  122.9170  115.2120 H   0  0  0  0  0  0  0  0  0  0  0  0
  1  2  1  0  0  0  0
  1 19  1  1  0  0  0
  2  3  1  0  0  0  0
  2 21  1  0  0  0  0
  3  4  1  0  0  0  0
  3 22  1  1  0  0  0
  4 23  1  6  0  0  0
  4  8  1  0  0  0  0
  4  5  1  0  0  0  0
  5  6  1  0  0  0  0
  5 25  1  0  0  0  0
  6 27  1  0  0  0  0
  7 47  1  6  0  0  0
  7  6  1  0  0  0  0
  7 49  1  0  0  0  0
  8  7  1  0  0  0  0
  8 39  1  1  0  0  0
  9 29  1  0  0  0  0
  9  8  1  0  0  0  0
 10 30  1  6  0  0  0
 10  9  1  0  0  0  0
 10 56  1  0  0  0  0
 11 31  1  6  0  0  0
 11 10  1  0  0  0  0
 11  3  1  0  0  0  0
 12 11  1  0  0  0  0
 12 43  1  1  0  0  0
 13 32  1  0  0  0  0
 13 12  1  0  0  0  0
 14 13  2  0  0  0  0
 15 14  1  0  0  0  0
 15 17  1  0  0  0  0
 16 15  2  0  0  0  0
 17 18  2  0  0  0  0
 18 12  1  0  0  0  0
 18  1  1  0  0  0  0
 20  2  1  0  0  0  0
 24  5  1  0  0  0  0
 26  6  1  0  0  0  0
 28  9  1  0  0  0  0
 33 14  1  0  0  0  0
 34 17  1  0  0  0  0
 35  1  1  0  0  0  0
 35 38  1  0  0  0  0
 36 35  1  0  0  0  0
 37 35  1  0  0  0  0
 39 40  1  0  0  0  0
 39 42  1  0  0  0  0
 41 39  1  0  0  0  0
 43 46  1  0  0  0  0
 43 44  1  0  0  0  0
 45 43  1  0  0  0  0
 48 47  1  0  0  0  0
 49 50  2  0  0  0  0
 51 52  1  0  0  0  0
 51 49  1  0  0  0  0
 51 53  1  0  0  0  0
 54 51  1  0  0  0  0
 55 54  1  0  0  0  0
 57 56  1  0  0  0  0
M  END
>  <MODEL>
1

>  <REMARK>
 VINA RESULT:      -9.4      0.000      0.000
  Name = METHYLPREDNISOLON
  8 active torsions:
  status: ('A' for Active; 'I' for Inactive)
    1  A    between atoms: C_1  and  C_2
    2  A    between atoms: C_8  and  O_9
    3  A    between atoms: C_8  and  C_10
    4  A    between atoms: C_10  and  C_12
    5  A    between atoms: C_12  and  O_13
    6  A    between atoms: C_14  and  C_15
    7  A    between atoms: C_17  and  O_18
    8  A    between atoms: C_20  and  C_21
                            x       y       z     vdW  Elec       q    Type
                         _______ _______ _______ _____ _____    ______ ____

>  <TORSDO>
F 8

>  <vina_affinity>
-9.4

>  <vina_rmsd_lb>
0.000

>  <vina_rmsd_ub>
0.000

$$$$
METHYLPREDNISOLON
 OpenBabel09042222203D

 57 60  0  0  1  0  0  0  0  0999 V2000
   94.7780  122.0480  118.3310 C   0  0  1  0  0  0  0  0  0  0  0  0
   93.3930  121.4590  118.0290 C   0  0  0  0  0  0  0  0  0  0  0  0
   93.2480  121.0560  116.5430 C   0  0  1  0  0  0  0  0  0  0  0  0
   91.7980  120.5850  116.2650 C   0  0  2  0  0  0  0  0  0  0  0  0
   91.2080  119.4920  117.1400 C   0  0  0  0  0  0  0  0  0  0  0  0
   90.0010  118.9720  116.3420 C   0  0  0  0  0  0  0  0  0  0  0  0
   90.0380  119.6590  114.9370 C   0  0  2  0  0  0  0  0  0  0  0  0
   91.5420  120.1120  114.8230 C   0  0  1  0  0  0  0  0  0  0  0  0
   91.8350  121.3150  113.8780 C   0  0  0  0  0  0  0  0  0  0  0  0
   93.2250  121.9750  114.0940 C   0  0  1  0  0  0  0  0  0  0  0  0
   93.5550  122.2750  115.6040 C   0  0  2  0  0  0  0  0  0  0  0  0
   94.9490  122.9610  115.8940 C   0  0  1  0  0  0  0  0  0  0  0  0
   95.0680  124.2270  115.0450 C   0  0  0  0  0  0  0  0  0  0  0  0
   95.2520  125.4430  115.5510 C   0  0  0  0  0  0  0  0  0  0  0  0
   95.3300  125.6390  116.9930 C   0  0  0  0  0  0  0  0  0  0  0  0
   95.5120  126.7930  117.4650 O   0  0  0  0  0  0  0  0  0  0  0  0
   95.1900  124.4940  117.8890 C   0  0  0  0  0  0  0  0  0  0  0  0
   95.0120  123.2440  117.4100 C   0  0  0  0  0  0  0  0  0  0  0  0
   95.5410  121.2760  118.1010 H   0  0  0  0  0  0  0  0  0  0  0  0
   92.6090  122.2030  118.2980 H   0  0  0  0  0  0  0  0  0  0  0  0
   93.2440  120.5590  118.6650 H   0  0  0  0  0  0  0  0  0  0  0  0
   93.9640  120.2340  116.3570 H   0  0  0  0  0  0  0  0  0  0  0  0
   91.1540  121.4810  116.4500 H   0  0  0  0  0  0  0  0  0  0  0  0
   90.8880  119.8930  118.1270 H   0  0  0  0  0  0  0  0  0  0  0  0
   91.9520  118.6790  117.2970 H   0  0  0  0  0  0  0  0  0  0  0  0
   89.0530  119.2090  116.8740 H   0  0  0  0  0  0  0  0  0  0  0  0
   90.0810  117.8650  116.2890 H   0  0  0  0  0  0  0  0  0  0  0  0
   91.0760  122.1100  114.0340 H   0  0  0  0  0  0  0  0  0  0  0  0
   91.7600  121.0030  112.8150 H   0  0  0  0  0  0  0  0  0  0  0  0
   93.1530  122.9560  113.5790 H   0  0  0  0  0  0  0  0  0  0  0  0
   92.8060  123.0530  115.8890 H   0  0  0  0  0  0  0  0  0  0  0  0
   95.0590  124.1350  113.9660 H   0  0  0  0  0  0  0  0  0  0  0  0
   95.3520  126.2940  114.8870 H   0  0  0  0  0  0  0  0  0  0  0  0
   95.2160  124.6990  118.9490 H   0  0  0  0  0  0  0  0  0  0  0  0
   94.9120  122.3290  119.8380 C   0  0  0  0  0  0  0  0  0  0  0  0
   95.0120  123.4170  120.0340 H   0  0  0  0  0  0  0  0  0  0  0  0
   94.0100  121.9620  120.3730 H   0  0  0  0  0  0  0  0  0  0  0  0
   95.7890  121.7890  120.2540 H   0  0  0  0  0  0  0  0  0  0  0  0
   92.4080  118.8720  114.4150 C   0  0  0  0  0  0  0  0  0  0  0  0
   93.4660  119.0210  114.7200 H   0  0  0  0  0  0  0  0  0  0  0  0
   92.4090  118.7090  113.3170 H   0  0  0  0  0  0  0  0  0  0  0  0
   92.0650  117.9170  114.8360 H   0  0  0  0  0  0  0  0  0  0  0  0
   96.1680  122.0780  115.5280 C   0  0  0  0  0  0  0  0  0  0  0  0
   95.8410  121.0290  115.3560 H   0  0  0  0  0  0  0  0  0  0  0  0
   96.9140  122.0400  116.3490 H   0  0  0  0  0  0  0  0  0  0  0  0
   96.6820  122.4260  114.6110 H   0  0  0  0  0  0  0  0  0  0  0  0
   89.1730  120.7740  115.0160 O   0  0  0  0  0  0  0  0  0  0  0  0
   88.2500  120.4940  114.7920 H   0  0  0  0  0  0  0  0  0  0  0  0
   89.5600  118.7080  113.8190 C   0  0  0  0  0  0  0  0  0  0  0  0
   89.6650  117.4980  113.9560 O   0  0  0  0  0  0  0  0  0  0  0  0
   88.9420  119.2110  112.5380 C   0  0  0  0  0  0  0  0  0  0  0  0
   89.4400  120.1270  112.1760 H   0  0  0  0  0  0  0  0  0  0  0  0
   89.0540  118.4390  111.7440 H   0  0  0  0  0  0  0  0  0  0  0  0
   87.5880  119.5120  112.7420 O   0  0  0  0  0  0  0  0  0  0  0  0
   87.3200  120.1400  112.0190 H   0  0  0  0  0  0  0  0  0  0  0  0
   94.2260  121.2600  113.4130 O   0  0  0  0  0  0  0  0  0  0  0  0
   95.0970  121.6830  113.5990 H   0  0  0  0  0  0  0  0  0  0  0  0
  1 19  1  6  0  0  0
  1 35  1  0  0  0  0
  2 20  1  0  0  0  0
  2  1  1  0  0  0  0
  2 21  1  0  0  0  0
  3 22  1  6  0  0  0
  3  2  1  0  0  0  0
  4 23  1  1  0  0  0
  4  3  1  0  0  0  0
  4  5  1  0  0  0  0
  5 25  1  0  0  0  0
  5 24  1  0  0  0  0
  6 26  1  0  0  0  0
  6  5  1  0  0  0  0
  7 49  1  6  0  0  0
  7 47  1  0  0  0  0
  7  6  1  0  0  0  0
  8 39  1  6  0  0  0
  8  7  1  0  0  0  0
  8  4  1  0  0  0  0
  9 28  1  0  0  0  0
  9 10  1  0  0  0  0
  9  8  1  0  0  0  0
 10 30  1  6  0  0  0
 10 11  1  0  0  0  0
 11 31  1  1  0  0  0
 11 12  1  0  0  0  0
 11  3  1  0  0  0  0
 12 43  1  6  0  0  0
 12 18  1  0  0  0  0
 13 14  2  0  0  0  0
 13 12  1  0  0  0  0
 14 15  1  0  0  0  0
 15 16  2  0  0  0  0
 15 17  1  0  0  0  0
 17 34  1  0  0  0  0
 18 17  2  0  0  0  0
 18  1  1  0  0  0  0
 27  6  1  0  0  0  0
 29  9  1  0  0  0  0
 32 13  1  0  0  0  0
 33 14  1  0  0  0  0
 35 36  1  0  0  0  0
 35 38  1  0  0  0  0
 35 37  1  0  0  0  0
 39 40  1  0  0  0  0
 39 42  1  0  0  0  0
 41 39  1  0  0  0  0
 43 45  1  0  0  0  0
 44 43  1  0  0  0  0
 46 43  1  0  0  0  0
 48 47  1  0  0  0  0
 49 50  2  0  0  0  0
 51 54  1  0  0  0  0
 51 49  1  0  0  0  0
 52 51  1  0  0  0  0
 53 51  1  0  0  0  0
 55 54  1  0  0  0  0
 56 57  1  0  0  0  0
 56 10  1  0  0  0  0
M  END
>  <MODEL>
2

>  <REMARK>
 VINA RESULT:      -9.0      1.986      7.337
  Name = METHYLPREDNISOLON
  8 active torsions:
  status: ('A' for Active; 'I' for Inactive)
    1  A    between atoms: C_1  and  C_2
    2  A    between atoms: C_8  and  O_9
    3  A    between atoms: C_8  and  C_10
    4  A    between atoms: C_10  and  C_12
    5  A    between atoms: C_12  and  O_13
    6  A    between atoms: C_14  and  C_15
    7  A    between atoms: C_17  and  O_18
    8  A    between atoms: C_20  and  C_21
                            x       y       z     vdW  Elec       q    Type
                         _______ _______ _______ _____ _____    ______ ____

>  <TORSDO>
F 8

>  <vina_affinity>
-9.0

>  <vina_rmsd_lb>
1.986

>  <vina_rmsd_ub>
7.337

$$$$
CHOLESTEROL
 OpenBabel09042222203D

 74 77  0  0  1  0  0  0  0  0999 V2000
   94.2230  121.5850  115.9070 C   0  0  1  0  0  0  0  0  0  0  0  0
   94.7550  120.2110  116.4000 C   0  0  0  0  0  0  0  0  0  0  0  0
   93.7460  119.1540  115.9300 C   0  0  0  0  0  0  0  0  0  0  0  0
   92.8740  119.8990  114.9300 C   0  0  1  0  0  0  0  0  0  0  0  0
   91.5310  119.2680  114.5020 C   0  0  2  0  0  0  0  0  0  0  0  0
   91.7570  117.8460  113.9630 C   0  0  0  0  0  0  0  0  0  0  0  0
   90.5770  117.2940  113.2190 C   0  0  0  0  0  0  0  0  0  0  0  0
   89.6210  118.0670  112.6620 C   0  0  0  0  0  0  0  0  0  0  0  0
   88.7170  117.4730  111.6050 C   0  0  0  0  0  0  0  0  0  0  0  0
   89.0210  118.1250  110.2360 C   0  0  2  0  0  0  0  0  0  0  0  0
   89.4940  119.6000  110.3490 C   0  0  0  0  0  0  0  0  0  0  0  0
   88.9740  120.2740  111.6310 C   0  0  0  0  0  0  0  0  0  0  0  0
   89.4900  119.5730  112.9400 C   0  0  2  0  0  0  0  0  0  0  0  0
   90.8820  120.1640  113.3980 C   0  0  1  0  0  0  0  0  0  0  0  0
   90.8380  121.6710  113.8250 C   0  0  0  0  0  0  0  0  0  0  0  0
   92.1900  122.2060  114.3580 C   0  0  0  0  0  0  0  0  0  0  0  0
   92.7390  121.3210  115.5040 C   0  0  2  0  0  0  0  0  0  0  0  0
   94.7680  121.7700  114.9500 H   0  0  0  0  0  0  0  0  0  0  0  0
   94.8680  120.1450  117.4980 H   0  0  0  0  0  0  0  0  0  0  0  0
   95.7540  120.0110  115.9520 H   0  0  0  0  0  0  0  0  0  0  0  0
   93.1350  118.7870  116.7830 H   0  0  0  0  0  0  0  0  0  0  0  0
   94.2630  118.2930  115.4520 H   0  0  0  0  0  0  0  0  0  0  0  0
   93.4900  119.9580  113.9980 H   0  0  0  0  0  0  0  0  0  0  0  0
   90.8710  119.1740  115.3830 H   0  0  0  0  0  0  0  0  0  0  0  0
   91.9930  117.1620  114.8070 H   0  0  0  0  0  0  0  0  0  0  0  0
   92.6230  117.8350  113.2650 H   0  0  0  0  0  0  0  0  0  0  0  0
   90.6260  116.2400  112.9590 H   0  0  0  0  0  0  0  0  0  0  0  0
   88.8290  116.3690  111.5250 H   0  0  0  0  0  0  0  0  0  0  0  0
   87.6620  117.6660  111.8970 H   0  0  0  0  0  0  0  0  0  0  0  0
   89.8490  117.5500  109.7660 H   0  0  0  0  0  0  0  0  0  0  0  0
   89.1580  120.1780  109.4610 H   0  0  0  0  0  0  0  0  0  0  0  0
   90.6060  119.6320  110.3540 H   0  0  0  0  0  0  0  0  0  0  0  0
   87.8620  120.2410  111.5860 H   0  0  0  0  0  0  0  0  0  0  0  0
   89.2310  121.3480  111.5960 H   0  0  0  0  0  0  0  0  0  0  0  0
   91.5570  120.1230  112.5130 H   0  0  0  0  0  0  0  0  0  0  0  0
   90.5710  122.3090  112.9610 H   0  0  0  0  0  0  0  0  0  0  0  0
   90.0640  121.8430  114.5960 H   0  0  0  0  0  0  0  0  0  0  0  0
   92.0350  123.2460  114.7050 H   0  0  0  0  0  0  0  0  0  0  0  0
   92.9170  122.2470  113.5160 H   0  0  0  0  0  0  0  0  0  0  0  0
   88.4050  119.7490  114.0330 C   0  0  0  0  0  0  0  0  0  0  0  0
   88.0670  120.8030  114.1030 H   0  0  0  0  0  0  0  0  0  0  0  0
   88.7560  119.4160  115.0300 H   0  0  0  0  0  0  0  0  0  0  0  0
   87.5050  119.1450  113.7910 H   0  0  0  0  0  0  0  0  0  0  0  0
   91.7940  121.3990  116.7390 C   0  0  0  0  0  0  0  0  0  0  0  0
   91.7630  120.4410  117.2960 H   0  0  0  0  0  0  0  0  0  0  0  0
   92.1230  122.2100  117.4170 H   0  0  0  0  0  0  0  0  0  0  0  0
   90.7500  121.6480  116.4750 H   0  0  0  0  0  0  0  0  0  0  0  0
   94.6300  122.7960  116.8210 C   0  0  2  0  0  0  0  0  0  0  0  0
   93.6840  123.3690  116.9530 H   0  0  0  0  0  0  0  0  0  0  0  0
   95.6490  123.8040  116.2370 C   0  0  0  0  0  0  0  0  0  0  0  0
   96.6630  123.3830  116.1230 H   0  0  0  0  0  0  0  0  0  0  0  0
   95.7140  124.7290  116.8430 H   0  0  0  0  0  0  0  0  0  0  0  0
   95.3180  124.1130  115.2230 H   0  0  0  0  0  0  0  0  0  0  0  0
   95.0660  122.3270  118.2300 C   0  0  0  0  0  0  0  0  0  0  0  0
   95.2030  121.2230  118.2250 H   0  0  0  0  0  0  0  0  0  0  0  0
   96.0330  122.8040  118.4860 H   0  0  0  0  0  0  0  0  0  0  0  0
   94.0390  122.6840  119.3190 C   0  0  0  0  0  0  0  0  0  0  0  0
   93.1020  122.1060  119.1620 H   0  0  0  0  0  0  0  0  0  0  0  0
   94.4470  122.4000  120.3140 H   0  0  0  0  0  0  0  0  0  0  0  0
   93.7060  124.1870  119.3600 C   0  0  0  0  0  0  0  0  0  0  0  0
   94.2750  124.7180  118.5660 H   0  0  0  0  0  0  0  0  0  0  0  0
   94.1040  124.5710  120.3260 H   0  0  0  0  0  0  0  0  0  0  0  0
   92.1850  124.4930  119.2570 C   0  0  0  0  0  0  0  0  0  0  0  0
   91.9290  125.3590  119.9060 H   0  0  0  0  0  0  0  0  0  0  0  0
   91.8010  124.8780  117.8220 C   0  0  0  0  0  0  0  0  0  0  0  0
   92.0070  124.0380  117.1230 H   0  0  0  0  0  0  0  0  0  0  0  0
   92.3820  125.7670  117.4970 H   0  0  0  0  0  0  0  0  0  0  0  0
   90.7220  125.1360  117.7680 H   0  0  0  0  0  0  0  0  0  0  0  0
   91.3400  123.2910  119.7090 C   0  0  0  0  0  0  0  0  0  0  0  0
   90.3510  123.3080  119.2030 H   0  0  0  0  0  0  0  0  0  0  0  0
   91.8520  122.3370  119.4580 H   0  0  0  0  0  0  0  0  0  0  0  0
   91.1630  123.3160  120.8020 H   0  0  0  0  0  0  0  0  0  0  0  0
   87.9070  118.0190  109.3860 O   0  0  0  0  0  0  0  0  0  0  0  0
   87.9600  117.1360  108.9330 H   0  0  0  0  0  0  0  0  0  0  0  0
  1 18  1  6  0  0  0
  1  2  1  0  0  0  0
  1 48  1  0  0  0  0
  2 19  1  0  0  0  0
  3  2  1  0  0  0  0
  3 21  1  0  0  0  0
  4 23  1  6  0  0  0
  4 17  1  0  0  0  0
  4  3  1  0  0  0  0
  5  4  1  0  0  0  0
  5 24  1  1  0  0  0
  6  5  1  0  0  0  0
  6 25  1  0  0  0  0
  7  6  1  0  0  0  0
  8 13  1  0  0  0  0
  8  7  2  0  0  0  0
  9 29  1  0  0  0  0
  9  8  1  0  0  0  0
 10 30  1  6  0  0  0
 10 11  1  0  0  0  0
 10  9  1  0  0  0  0
 11 32  1  0  0  0  0
 11 12  1  0  0  0  0
 12 13  1  0  0  0  0
 13 14  1  0  0  0  0
 13 40  1  1  0  0  0
 14 35  1  6  0  0  0
 14 15  1  0  0  0  0
 14  5  1  0  0  0  0
 15 16  1  0  0  0  0
 15 37  1  0  0  0  0
 16 38  1  0  0  0  0
 16 17  1  0  0  0  0
 17  1  1  0  0  0  0
 17 44  1  1  0  0  0
 20  2  1  0  0  0  0
 22  3  1  0  0  0  0
 26  6  1  0  0  0  0
 27  7  1  0  0  0  0
 28  9  1  0  0  0  0
 31 11  1  0  0  0  0
 33 12  1  0  0  0  0
 34 12  1  0  0  0  0
 36 15  1  0  0  0  0
 39 16  1  0  0  0  0
 40 41  1  0  0  0  0
 40 42  1  0  0  0  0
 43 40  1  0  0  0  0
 44 45  1  0  0  0  0
 44 46  1  0  0  0  0
 47 44  1  0  0  0  0
 48 49  1  1  0  0  0
 48 54  1  0  0  0  0
 50 48  1  0  0  0  0
 50 52  1  0  0  0  0
 51 50  1  0  0  0  0
 53 50  1  0  0  0  0
 54 56  1  0  0  0  0
 54 57  1  0  0  0  0
 55 54  1  0  0  0  0
 57 60  1  0  0  0  0
 57 59  1  0  0  0  0
 58 57  1  0  0  0  0
 60 62  1  0  0  0  0
 61 60  1  0  0  0  0
 63 60  1  0  0  0  0
 63 69  1  0  0  0  0
 63 64  1  0  0  0  0
 65 63  1  0  0  0  0
 66 65  1  0  0  0  0
 67 65  1  0  0  0  0
 68 65  1  0  0  0  0
 69 72  1  0  0  0  0
 70 69  1  0  0  0  0
 71 69  1  0  0  0  0
 73 10  1  0  0  0  0
 74 73  1  0  0  0  0
M  END
>  <MODEL>
1

>  <REMARK>
 VINA RESULT:      -9.1      0.000      0.000
  Name = CHOLESTEROL
  11 active torsions:
  status: ('A' for Active; 'I' for Inactive)
    1  A    between atoms: C_1  and  C_2
    2  A    between atoms: C_2  and  C_3
    3  A    between atoms: C_2  and  C_4
    4  A    between atoms: C_4  and  C_5
    5  A    between atoms: C_5  and  C_6
    6  A    between atoms: C_6  and  C_7
    7  A    between atoms: C_7  and  C_8
    8  A    between atoms: C_7  and  C_9
    9  A    between atoms: C_18  and  O_19
   10  A    between atoms: C_22  and  C_23
   11  A    between atoms: C_27  and  C_28
                            x       y       z     vdW  Elec       q    Type
                         _______ _______ _______ _____ _____    ______ ____

>  <TORSDO>
F 11

>  <vina_affinity>
-9.1

>  <vina_rmsd_lb>
0.000

>  <vina_rmsd_ub>
0.000

$$$$
CHOLESTEROL
 OpenBabel09042222203D

 74 77  0  0  1  0  0  0  0  0999 V2000
   89.9110  120.4850  115.3510 C   0  0  1  0  0  0  0  0  0  0  0  0
   88.7740  120.9230  116.3150 C   0  0  0  0  0  0  0  0  0  0  0  0
   89.4410  121.7090  117.4530 C   0  0  0  0  0  0  0  0  0  0  0  0
   90.8490  121.9710  116.9410 C   0  0  1  0  0  0  0  0  0  0  0  0
   91.9290  122.4330  117.9440 C   0  0  2  0  0  0  0  0  0  0  0  0
   91.4590  123.6890  118.6940 C   0  0  0  0  0  0  0  0  0  0  0  0
   92.5610  124.3950  119.4280 C   0  0  0  0  0  0  0  0  0  0  0  0
   93.8670  124.2640  119.1130 C   0  0  0  0  0  0  0  0  0  0  0  0
   94.8520  125.2980  119.6130 C   0  0  0  0  0  0  0  0  0  0  0  0
   95.3930  126.1180  118.4190 C   0  0  2  0  0  0  0  0  0  0  0  0
   95.4720  125.3030  117.0990 C   0  0  0  0  0  0  0  0  0  0  0  0
   95.6170  123.7940  117.3620 C   0  0  0  0  0  0  0  0  0  0  0  0
   94.3950  123.1920  118.1460 C   0  0  2  0  0  0  0  0  0  0  0  0
   93.2480  122.7360  117.1610 C   0  0  1  0  0  0  0  0  0  0  0  0
   93.6410  121.5570  116.2070 C   0  0  0  0  0  0  0  0  0  0  0  0
   92.4770  121.0640  115.3140 C   0  0  0  0  0  0  0  0  0  0  0  0
   91.2290  120.7020  116.1570 C   0  0  2  0  0  0  0  0  0  0  0  0
   89.9140  121.2640  114.5500 H   0  0  0  0  0  0  0  0  0  0  0  0
   88.2020  120.0780  116.7420 H   0  0  0  0  0  0  0  0  0  0  0  0
   88.0510  121.5730  115.7750 H   0  0  0  0  0  0  0  0  0  0  0  0
   89.4710  121.1030  118.3840 H   0  0  0  0  0  0  0  0  0  0  0  0
   88.8990  122.6600  117.6510 H   0  0  0  0  0  0  0  0  0  0  0  0
   90.7390  122.8100  116.2090 H   0  0  0  0  0  0  0  0  0  0  0  0
   92.0850  121.6460  118.7050 H   0  0  0  0  0  0  0  0  0  0  0  0
   90.6700  123.4110  119.4260 H   0  0  0  0  0  0  0  0  0  0  0  0
   91.0170  124.4180  117.9800 H   0  0  0  0  0  0  0  0  0  0  0  0
   92.2540  125.1920  120.1010 H   0  0  0  0  0  0  0  0  0  0  0  0
   94.4000  125.9850  120.3620 H   0  0  0  0  0  0  0  0  0  0  0  0
   95.6840  124.7690  120.1260 H   0  0  0  0  0  0  0  0  0  0  0  0
   94.6900  126.9610  118.2420 H   0  0  0  0  0  0  0  0  0  0  0  0
   96.3260  125.6570  116.4810 H   0  0  0  0  0  0  0  0  0  0  0  0
   94.5490  125.4750  116.5020 H   0  0  0  0  0  0  0  0  0  0  0  0
   96.5570  123.6550  117.9430 H   0  0  0  0  0  0  0  0  0  0  0  0
   95.7960  123.2810  116.3990 H   0  0  0  0  0  0  0  0  0  0  0  0
   93.0330  123.6030  116.4930 H   0  0  0  0  0  0  0  0  0  0  0  0
   94.4480  121.8710  115.5180 H   0  0  0  0  0  0  0  0  0  0  0  0
   94.0330  120.6960  116.7810 H   0  0  0  0  0  0  0  0  0  0  0  0
   92.8320  120.1850  114.7410 H   0  0  0  0  0  0  0  0  0  0  0  0
   92.2290  121.8580  114.5750 H   0  0  0  0  0  0  0  0  0  0  0  0
   94.9150  122.0110  119.0050 C   0  0  0  0  0  0  0  0  0  0  0  0
   95.8840  121.6290  118.6250 H   0  0  0  0  0  0  0  0  0  0  0  0
   94.1900  121.1740  119.0510 H   0  0  0  0  0  0  0  0  0  0  0  0
   95.0950  122.3380  120.0520 H   0  0  0  0  0  0  0  0  0  0  0  0
   91.5390  119.4820  117.0740 C   0  0  0  0  0  0  0  0  0  0  0  0
   92.6210  119.2440  117.0930 H   0  0  0  0  0  0  0  0  0  0  0  0
   91.1870  119.6840  118.1040 H   0  0  0  0  0  0  0  0  0  0  0  0
   91.0140  118.5590  116.7660 H   0  0  0  0  0  0  0  0  0  0  0  0
   89.6200  119.1460  114.5830 C   0  0  2  0  0  0  0  0  0  0  0  0
   89.4050  118.4090  115.3890 H   0  0  0  0  0  0  0  0  0  0  0  0
   90.7870  118.5400  113.7660 C   0  0  0  0  0  0  0  0  0  0  0  0
   90.5850  118.4970  112.6820 H   0  0  0  0  0  0  0  0  0  0  0  0
   91.0570  117.5240  114.1170 H   0  0  0  0  0  0  0  0  0  0  0  0
   91.6920  119.1690  113.8960 H   0  0  0  0  0  0  0  0  0  0  0  0
   88.3400  119.2490  113.7200 C   0  0  0  0  0  0  0  0  0  0  0  0
   88.1710  118.2830  113.1950 H   0  0  0  0  0  0  0  0  0  0  0  0
   87.4740  119.4490  114.3820 H   0  0  0  0  0  0  0  0  0  0  0  0
   88.4220  120.3680  112.6660 C   0  0  0  0  0  0  0  0  0  0  0  0
   87.7260  121.1920  112.9320 H   0  0  0  0  0  0  0  0  0  0  0  0
   89.4530  120.7870  112.6580 H   0  0  0  0  0  0  0  0  0  0  0  0
   88.1050  119.8760  111.2430 C   0  0  0  0  0  0  0  0  0  0  0  0
   87.7700  120.7310  110.6160 H   0  0  0  0  0  0  0  0  0  0  0  0
   87.2230  119.2020  111.3320 H   0  0  0  0  0  0  0  0  0  0  0  0
   89.2820  119.1160  110.5680 C   0  0  0  0  0  0  0  0  0  0  0  0
   90.2010  119.2140  111.1880 H   0  0  0  0  0  0  0  0  0  0  0  0
   88.9740  117.6170  110.4580 C   0  0  0  0  0  0  0  0  0  0  0  0
   88.4720  117.2530  111.3800 H   0  0  0  0  0  0  0  0  0  0  0  0
   89.9130  117.0430  110.3090 H   0  0  0  0  0  0  0  0  0  0  0  0
   88.3120  117.4220  109.5870 H   0  0  0  0  0  0  0  0  0  0  0  0
   89.5860  119.6820  109.1710 C   0  0  0  0  0  0  0  0  0  0  0  0
   90.5350  120.2590  109.1910 H   0  0  0  0  0  0  0  0  0  0  0  0
   89.6850  118.8590  108.4300 H   0  0  0  0  0  0  0  0  0  0  0  0
   88.7810  120.3620  108.8310 H   0  0  0  0  0  0  0  0  0  0  0  0
   96.6420  126.6790  118.7370 O   0  0  0  0  0  0  0  0  0  0  0  0
   97.1600  126.7510  117.8930 H   0  0  0  0  0  0  0  0  0  0  0  0
  1 18  1  6  0  0  0
  1 17  1  0  0  0  0
  1  2  1  0  0  0  0
  2 19  1  0  0  0  0
  2  3  1  0  0  0  0
  3 22  1  0  0  0  0
  3 21  1  0  0  0  0
  4 23  1  6  0  0  0
  4  3  1  0  0  0  0
  4  5  1  0  0  0  0
  5  6  1  0  0  0  0
  5 24  1  1  0  0  0
  6 25  1  0  0  0  0
  6  7  1  0  0  0  0
  7 27  1  0  0  0  0
  8  7  2  0  0  0  0
  8  9  1  0  0  0  0
  9 29  1  0  0  0  0
  9 28  1  0  0  0  0
 10 30  1  6  0  0  0
 10 73  1  0  0  0  0
 10  9  1  0  0  0  0
 11 12  1  0  0  0  0
 11 10  1  0  0  0  0
 12 33  1  0  0  0  0
 12 13  1  0  0  0  0
 13 40  1  1  0  0  0
 13  8  1  0  0  0  0
 14 35  1  6  0  0  0
 14  5  1  0  0  0  0
 14 13  1  0  0  0  0
 15 37  1  0  0  0  0
 15 14  1  0  0  0  0
 16 17  1  0  0  0  0
 16 15  1  0  0  0  0
 17  4  1  0  0  0  0
 17 44  1  1  0  0  0
 20  2  1  0  0  0  0
 26  6  1  0  0  0  0
 31 11  1  0  0  0  0
 32 11  1  0  0  0  0
 34 12  1  0  0  0  0
 36 15  1  0  0  0  0
 38 16  1  0  0  0  0
 39 16  1  0  0  0  0
 40 42  1  0  0  0  0
 40 43  1  0  0  0  0
 41 40  1  0  0  0  0
 44 45  1  0  0  0  0
 44 46  1  0  0  0  0
 47 44  1  0  0  0  0
 48  1  1  0  0  0  0
 48 49  1  1  0  0  0
 50 53  1  0  0  0  0
 50 52  1  0  0  0  0
 50 48  1  0  0  0  0
 51 50  1  0  0  0  0
 54 56  1  0  0  0  0
 54 48  1  0  0  0  0
 55 54  1  0  0  0  0
 57 58  1  0  0  0  0
 57 54  1  0  0  0  0
 59 57  1  0  0  0  0
 60 62  1  0  0  0  0
 60 57  1  0  0  0  0
 61 60  1  0  0  0  0
 63 64  1  0  0  0  0
 63 60  1  0  0  0  0
 65 63  1  0  0  0  0
 65 66  1  0  0  0  0
 67 65  1  0  0  0  0
 68 65  1  0  0  0  0
 69 70  1  0  0  0  0
 69 63  1  0  0  0  0
 71 69  1  0  0  0  0
 72 69  1  0  0  0  0
 74 73  1  0  0  0  0
M  END
>  <MODEL>
2

>  <REMARK>
 VINA RESULT:      -8.9      3.239      8.569
  Name = CHOLESTEROL
  11 active torsions:
  status: ('A' for Active; 'I' for Inactive)
    1  A    between atoms: C_1  and  C_2
    2  A    between atoms: C_2  and  C_3
    3  A    between atoms: C_2  and  C_4
    4  A    between atoms: C_4  and  C_5
    5  A    between atoms: C_5  and  C_6
    6  A    between atoms: C_6  and  C_7
    7  A    between atoms: C_7  and  C_8
    8  A    between atoms: C_7  and  C_9
    9  A    between atoms: C_18  and  O_19
   10  A    between atoms: C_22  and  C_23
   11  A    between atoms: C_27  and  C_28
                            x       y       z     vdW  Elec       q    Type
                         _______ _______ _______ _____ _____    ______ ____

>  <TORSDO>
F 11

>  <vina_affinity>
-8.9

>  <vina_rmsd_lb>
3.239

>  <vina_rmsd_ub>
8.569

$$$$
DEHYDROANDROSTERONE
 OpenBabel09042222203D

 49 52  0  0  1  0  0  0  0  0999 V2000
   94.9110  123.2080  116.3590 C   0  0  1  0  0  0  0  0  0  0  0  0
   95.6310  121.8470  116.3010 C   0  0  0  0  0  0  0  0  0  0  0  0
   94.6740  120.7530  115.7600 C   0  0  0  0  0  0  0  0  0  0  0  0
   93.2900  120.6950  116.5010 C   0  0  1  0  0  0  0  0  0  0  0  0
   92.6360  122.1030  116.6870 C   0  0  1  0  0  0  0  0  0  0  0  0
   91.4320  121.9850  117.6280 C   0  0  0  0  0  0  0  0  0  0  0  0
   90.5140  120.8540  117.2580 C   0  0  0  0  0  0  0  0  0  0  0  0
   90.9090  119.7490  116.5860 C   0  0  0  0  0  0  0  0  0  0  0  0
   89.8910  118.6310  116.4420 C   0  0  0  0  0  0  0  0  0  0  0  0
   90.5010  117.3200  115.9140 C   0  0  1  0  0  0  0  0  0  0  0  0
   91.9010  117.1150  116.4970 C   0  0  0  0  0  0  0  0  0  0  0  0
   92.8780  118.2050  116.0230 C   0  0  0  0  0  0  0  0  0  0  0  0
   92.2770  119.6560  115.8820 C   0  0  2  0  0  0  0  0  0  0  0  0
   93.6980  123.0470  117.2820 C   0  0  2  0  0  0  0  0  0  0  0  0
   93.3230  124.4680  117.7070 C   0  0  0  0  0  0  0  0  0  0  0  0
   94.6900  125.1520  117.8870 C   0  0  0  0  0  0  0  0  0  0  0  0
   95.6240  124.3050  117.0760 C   0  0  0  0  0  0  0  0  0  0  0  0
   96.8200  124.5320  116.9670 O   0  0  0  0  0  0  0  0  0  0  0  0
   96.5250  121.9160  115.6440 H   0  0  0  0  0  0  0  0  0  0  0  0
   95.9850  121.5540  117.3140 H   0  0  0  0  0  0  0  0  0  0  0  0
   95.1920  119.7760  115.8560 H   0  0  0  0  0  0  0  0  0  0  0  0
   94.5380  120.9240  114.6770 H   0  0  0  0  0  0  0  0  0  0  0  0
   93.5250  120.3330  117.5300 H   0  0  0  0  0  0  0  0  0  0  0  0
   92.2730  122.5130  115.7250 H   0  0  0  0  0  0  0  0  0  0  0  0
   90.8530  122.9330  117.6080 H   0  0  0  0  0  0  0  0  0  0  0  0
   91.7720  121.8140  118.6730 H   0  0  0  0  0  0  0  0  0  0  0  0
   89.5170  120.8810  117.6930 H   0  0  0  0  0  0  0  0  0  0  0  0
   89.4430  118.4350  117.4410 H   0  0  0  0  0  0  0  0  0  0  0  0
   89.0730  118.9580  115.7630 H   0  0  0  0  0  0  0  0  0  0  0  0
   90.5840  117.3670  114.8080 H   0  0  0  0  0  0  0  0  0  0  0  0
   92.2900  116.1190  116.1930 H   0  0  0  0  0  0  0  0  0  0  0  0
   91.8460  117.1300  117.6080 H   0  0  0  0  0  0  0  0  0  0  0  0
   93.7210  118.1900  116.7480 H   0  0  0  0  0  0  0  0  0  0  0  0
   93.3240  117.8760  115.0590 H   0  0  0  0  0  0  0  0  0  0  0  0
   94.0430  122.5610  118.2300 H   0  0  0  0  0  0  0  0  0  0  0  0
   92.7300  124.9710  116.9130 H   0  0  0  0  0  0  0  0  0  0  0  0
   92.7460  124.4720  118.6580 H   0  0  0  0  0  0  0  0  0  0  0  0
   94.6690  126.1970  117.5070 H   0  0  0  0  0  0  0  0  0  0  0  0
   95.0000  125.1330  118.9540 H   0  0  0  0  0  0  0  0  0  0  0  0
   94.5850  123.7350  114.9330 C   0  0  0  0  0  0  0  0  0  0  0  0
   93.6500  124.3250  114.8900 H   0  0  0  0  0  0  0  0  0  0  0  0
   94.4670  122.8790  114.2340 H   0  0  0  0  0  0  0  0  0  0  0  0
   95.4000  124.3800  114.5410 H   0  0  0  0  0  0  0  0  0  0  0  0
   92.0240  119.9620  114.3770 C   0  0  0  0  0  0  0  0  0  0  0  0
   92.8790  119.6460  113.7480 H   0  0  0  0  0  0  0  0  0  0  0  0
   91.1390  119.4220  113.9890 H   0  0  0  0  0  0  0  0  0  0  0  0
   91.8850  121.0450  114.1890 H   0  0  0  0  0  0  0  0  0  0  0  0
   89.6680  116.2280  116.2160 O   0  0  0  0  0  0  0  0  0  0  0  0
   90.0560  115.4200  115.7890 H   0  0  0  0  0  0  0  0  0  0  0  0
  1 40  1  6  0  0  0
  1 17  1  0  0  0  0
  1 14  1  0  0  0  0
  2  1  1  0  0  0  0
  2 20  1  0  0  0  0
  3 21  1  0  0  0  0
  3  2  1  0  0  0  0
  3  4  1  0  0  0  0
  4  5  1  0  0  0  0
  4 23  1  1  0  0  0
  5 24  1  6  0  0  0
  5 14  1  0  0  0  0
  5  6  1  0  0  0  0
  6 26  1  0  0  0  0
  7  6  1  0  0  0  0
  7 27  1  0  0  0  0
  8  7  2  0  0  0  0
  9  8  1  0  0  0  0
  9 28  1  0  0  0  0
 10 30  1  6  0  0  0
 10 48  1  0  0  0  0
 10  9  1  0  0  0  0
 10 11  1  0  0  0  0
 11 32  1  0  0  0  0
 12 11  1  0  0  0  0
 12 33  1  0  0  0  0
 13 44  1  6  0  0  0
 13 12  1  0  0  0  0
 13  4  1  0  0  0  0
 13  8  1  0  0  0  0
 14 15  1  0  0  0  0
 14 35  1  1  0  0  0
 15 16  1  0  0  0  0
 15 37  1  0  0  0  0
 16 39  1  0  0  0  0
 17 16  1  0  0  0  0
 18 17  2  0  0  0  0
 19  2  1  0  0  0  0
 22  3  1  0  0  0  0
 25  6  1  0  0  0  0
 29  9  1  0  0  0  0
 31 11  1  0  0  0  0
 34 12  1  0  0  0  0
 36 15  1  0  0  0  0
 38 16  1  0  0  0  0
 41 40  1  0  0  0  0
 42 40  1  0  0  0  0
 43 40  1  0  0  0  0
 45 44  1  0  0  0  0
 46 44  1  0  0  0  0
 47 44  1  0  0  0  0
 49 48  1  0  0  0  0
M  END
>  <MODEL>
1

>  <REMARK>
 VINA RESULT:      -9.3      0.000      0.000
  Name = DEHYDROANDROSTERONE
  3 active torsions:
  status: ('A' for Active; 'I' for Inactive)
    1  A    between atoms: C_1  and  C_2
    2  A    between atoms: C_11  and  O_12
    3  A    between atoms: C_15  and  C_16
                            x       y       z     vdW  Elec       q    Type
                         _______ _______ _______ _____ _____    ______ ____

>  <TORSDO>
F 3

>  <vina_affinity>
-9.3

>  <vina_rmsd_lb>
0.000

>  <vina_rmsd_ub>
0.000

$$$$
DEHYDROANDROSTERONE
 OpenBabel09042222203D

 49 52  0  0  1  0  0  0  0  0999 V2000
   91.8300  122.0580  116.3180 C   0  0  1  0  0  0  0  0  0  0  0  0
   91.1680  122.9100  115.2180 C   0  0  0  0  0  0  0  0  0  0  0  0
   90.0950  122.0810  114.4660 C   0  0  0  0  0  0  0  0  0  0  0  0
   90.6110  120.6900  113.9510 C   0  0  1  0  0  0  0  0  0  0  0  0
   91.4110  119.8960  115.0330 C   0  0  1  0  0  0  0  0  0  0  0  0
   92.0860  118.6830  114.3800 C   0  0  0  0  0  0  0  0  0  0  0  0
   91.1470  117.8920  113.5150 C   0  0  0  0  0  0  0  0  0  0  0  0
   90.0520  118.4120  112.9160 C   0  0  0  0  0  0  0  0  0  0  0  0
   89.3070  117.5140  111.9420 C   0  0  0  0  0  0  0  0  0  0  0  0
   88.2540  118.2650  111.1090 C   0  0  1  0  0  0  0  0  0  0  0  0
   88.7630  119.6620  110.7450 C   0  0  0  0  0  0  0  0  0  0  0  0
   88.9520  120.5390  111.9950 C   0  0  0  0  0  0  0  0  0  0  0  0
   89.4930  119.8020  113.2800 C   0  0  2  0  0  0  0  0  0  0  0  0
   92.4670  120.8420  115.6370 C   0  0  2  0  0  0  0  0  0  0  0  0
   93.5020  120.3170  116.6330 C   0  0  0  0  0  0  0  0  0  0  0  0
   94.0910  121.6050  117.2380 C   0  0  0  0  0  0  0  0  0  0  0  0
   93.0400  122.6400  116.9690 C   0  0  0  0  0  0  0  0  0  0  0  0
   93.1420  123.8100  117.3060 O   0  0  0  0  0  0  0  0  0  0  0  0
   90.6940  123.8110  115.6650 H   0  0  0  0  0  0  0  0  0  0  0  0
   91.9330  123.2640  114.4910 H   0  0  0  0  0  0  0  0  0  0  0  0
   89.7400  122.6900  113.6080 H   0  0  0  0  0  0  0  0  0  0  0  0
   89.2260  121.9590  115.1370 H   0  0  0  0  0  0  0  0  0  0  0  0
   91.3470  120.9310  113.1470 H   0  0  0  0  0  0  0  0  0  0  0  0
   90.7480  119.5210  115.8360 H   0  0  0  0  0  0  0  0  0  0  0  0
   92.4880  118.0140  115.1710 H   0  0  0  0  0  0  0  0  0  0  0  0
   92.9370  119.0100  113.7440 H   0  0  0  0  0  0  0  0  0  0  0  0
   91.4660  116.8860  113.2530 H   0  0  0  0  0  0  0  0  0  0  0  0
   90.0500  117.0610  111.2490 H   0  0  0  0  0  0  0  0  0  0  0  0
   88.8170  116.6870  112.5010 H   0  0  0  0  0  0  0  0  0  0  0  0
   87.3200  118.3730  111.7000 H   0  0  0  0  0  0  0  0  0  0  0  0
   88.0410  120.1550  110.0580 H   0  0  0  0  0  0  0  0  0  0  0  0
   89.7330  119.5740  110.2080 H   0  0  0  0  0  0  0  0  0  0  0  0
   89.6370  121.3590  111.6870 H   0  0  0  0  0  0  0  0  0  0  0  0
   87.9850  121.0420  112.2160 H   0  0  0  0  0  0  0  0  0  0  0  0
   93.0800  121.2070  114.7740 H   0  0  0  0  0  0  0  0  0  0  0  0
   93.0130  119.7000  117.4180 H   0  0  0  0  0  0  0  0  0  0  0  0
   94.2890  119.7170  116.1270 H   0  0  0  0  0  0  0  0  0  0  0  0
   94.2680  121.4910  118.3290 H   0  0  0  0  0  0  0  0  0  0  0  0
   95.0330  121.8850  116.7190 H   0  0  0  0  0  0  0  0  0  0  0  0
   90.8220  121.7210  117.4530 C   0  0  0  0  0  0  0  0  0  0  0  0
   91.2340  121.0270  118.2100 H   0  0  0  0  0  0  0  0  0  0  0  0
   89.9180  121.2400  117.0220 H   0  0  0  0  0  0  0  0  0  0  0  0
   90.4920  122.6360  117.9900 H   0  0  0  0  0  0  0  0  0  0  0  0
   88.3140  119.5610  114.2670 C   0  0  0  0  0  0  0  0  0  0  0  0
   87.6250  118.7770  113.8950 H   0  0  0  0  0  0  0  0  0  0  0  0
   88.6680  119.2160  115.2580 H   0  0  0  0  0  0  0  0  0  0  0  0
   87.6980  120.4710  114.4110 H   0  0  0  0  0  0  0  0  0  0  0  0
   87.9240  117.5360  109.9530 O   0  0  0  0  0  0  0  0  0  0  0  0
   87.0040  117.1830  110.0650 H   0  0  0  0  0  0  0  0  0  0  0  0
  1 17  1  0  0  0  0
  1 40  1  1  0  0  0
  2 19  1  0  0  0  0
  2  1  1  0  0  0  0
  3 22  1  0  0  0  0
  3  2  1  0  0  0  0
  4 23  1  6  0  0  0
  4  3  1  0  0  0  0
  4  5  1  0  0  0  0
  5 14  1  0  0  0  0
  5 24  1  1  0  0  0
  6  5  1  0  0  0  0
  6 25  1  0  0  0  0
  7  6  1  0  0  0  0
  8 13  1  0  0  0  0
  8  7  2  0  0  0  0
  9 29  1  0  0  0  0
  9  8  1  0  0  0  0
 10 30  1  1  0  0  0
 10  9  1  0  0  0  0
 11 10  1  0  0  0  0
 11 12  1  0  0  0  0
 12 34  1  0  0  0  0
 12 13  1  0  0  0  0
 13  4  1  0  0  0  0
 13 44  1  1  0  0  0
 14 35  1  6  0  0  0
 14  1  1  0  0  0  0
 14 15  1  0  0  0  0
 15 16  1  0  0  0  0
 15 36  1  0  0  0  0
 16 38  1  0  0  0  0
 17 16  1  0  0  0  0
 17 18  2  0  0  0  0
 20  2  1  0  0  0  0
 21  3  1  0  0  0  0
 26  6  1  0  0  0  0
 27  7  1  0  0  0  0
 28  9  1  0  0  0  0
 31 11  1  0  0  0  0
 32 11  1  0  0  0  0
 33 12  1  0  0  0  0
 37 15  1  0  0  0  0
 39 16  1  0  0  0  0
 40 43  1  0  0  0  0
 40 41  1  0  0  0  0
 42 40  1  0  0  0  0
 44 47  1  0  0  0  0
 44 46  1  0  0  0  0
 45 44  1  0  0  0  0
 48 49  1  0  0  0  0
 48 10  1  0  0  0  0
M  END
>  <MODEL>
2

>  <REMARK>
 VINA RESULT:      -8.9      3.057      4.578
  Name = DEHYDROANDROSTERONE
  3 active torsions:
  status: ('A' for Active; 'I' for Inactive)
    1  A    between atoms: C_1  and  C_2
    2  A    between atoms: C_11  and  O_12
    3  A    between atoms: C_15  and  C_16
                            x       y       z     vdW  Elec       q    Type
                         _______ _______ _______ _____ _____    ______ ____

>  <TORSDO>
F 3

>  <vina_affinity>
-8.9

>  <vina_rmsd_lb>
3.057

>  <vina_rmsd_ub>
4.578

$$$$
ANDROSTENEDIONE
 OpenBabel09042222203D

 47 50  0  0  1  0  0  0  0  0999 V2000
   92.3790  123.7180  118.4330 C   0  0  1  0  0  0  0  0  0  0  0  0
   91.7740  124.3460  117.1630 C   0  0  0  0  0  0  0  0  0  0  0  0
   90.6380  123.4530  116.6000 C   0  0  0  0  0  0  0  0  0  0  0  0
   91.0410  121.9480  116.4220 C   0  0  1  0  0  0  0  0  0  0  0  0
   91.7760  121.3640  117.6790 C   0  0  1  0  0  0  0  0  0  0  0  0
   92.3260  119.9660  117.3550 C   0  0  0  0  0  0  0  0  0  0  0  0
   91.1960  119.0150  116.9710 C   0  0  0  0  0  0  0  0  0  0  0  0
   90.3700  119.5740  115.8350 C   0  0  0  0  0  0  0  0  0  0  0  0
   89.9380  118.7290  114.8810 C   0  0  0  0  0  0  0  0  0  0  0  0
   89.0210  119.1570  113.8170 C   0  0  0  0  0  0  0  0  0  0  0  0
   88.6700  118.3350  112.9290 O   0  0  0  0  0  0  0  0  0  0  0  0
   88.4480  120.5370  113.8150 C   0  0  0  0  0  0  0  0  0  0  0  0
   89.3990  121.5140  114.5130 C   0  0  0  0  0  0  0  0  0  0  0  0
   89.8630  121.0230  115.9230 C   0  0  2  0  0  0  0  0  0  0  0  0
   92.9130  122.3320  118.0530 C   0  0  2  0  0  0  0  0  0  0  0  0
   93.9160  121.9730  119.1520 C   0  0  0  0  0  0  0  0  0  0  0  0
   94.6070  123.3150  119.4490 C   0  0  0  0  0  0  0  0  0  0  0  0
   93.6370  124.3390  118.9420 C   0  0  0  0  0  0  0  0  0  0  0  0
   93.8320  125.5440  119.0020 O   0  0  0  0  0  0  0  0  0  0  0  0
   91.3700  125.3580  117.3920 H   0  0  0  0  0  0  0  0  0  0  0  0
   92.5600  124.4720  116.3850 H   0  0  0  0  0  0  0  0  0  0  0  0
   89.7520  123.5460  117.2570 H   0  0  0  0  0  0  0  0  0  0  0  0
   90.3500  123.8800  115.6180 H   0  0  0  0  0  0  0  0  0  0  0  0
   91.7990  121.9510  115.6030 H   0  0  0  0  0  0  0  0  0  0  0  0
   91.0850  121.2600  118.5380 H   0  0  0  0  0  0  0  0  0  0  0  0
   93.0630  120.0230  116.5220 H   0  0  0  0  0  0  0  0  0  0  0  0
   92.8460  119.5490  118.2450 H   0  0  0  0  0  0  0  0  0  0  0  0
   91.6490  118.0340  116.6990 H   0  0  0  0  0  0  0  0  0  0  0  0
   90.5360  118.8460  117.8480 H   0  0  0  0  0  0  0  0  0  0  0  0
   90.2620  117.6950  114.8820 H   0  0  0  0  0  0  0  0  0  0  0  0
   87.4630  120.5260  114.3270 H   0  0  0  0  0  0  0  0  0  0  0  0
   88.2850  120.8730  112.7680 H   0  0  0  0  0  0  0  0  0  0  0  0
   90.2850  121.6560  113.8540 H   0  0  0  0  0  0  0  0  0  0  0  0
   88.8820  122.4930  114.5870 H   0  0  0  0  0  0  0  0  0  0  0  0
   93.5420  122.4360  117.1330 H   0  0  0  0  0  0  0  0  0  0  0  0
   93.3910  121.5900  120.0530 H   0  0  0  0  0  0  0  0  0  0  0  0
   94.6510  121.2150  118.8030 H   0  0  0  0  0  0  0  0  0  0  0  0
   95.5640  123.3960  118.8880 H   0  0  0  0  0  0  0  0  0  0  0  0
   94.7860  123.4420  120.5380 H   0  0  0  0  0  0  0  0  0  0  0  0
   91.3590  123.7340  119.6060 C   0  0  0  0  0  0  0  0  0  0  0  0
   91.5260  122.8840  120.3020 H   0  0  0  0  0  0  0  0  0  0  0  0
   90.3070  123.6830  119.2680 H   0  0  0  0  0  0  0  0  0  0  0  0
   91.4710  124.6730  120.1890 H   0  0  0  0  0  0  0  0  0  0  0  0
   88.6580  121.0540  116.8970 C   0  0  0  0  0  0  0  0  0  0  0  0
   87.7120  120.7850  116.3830 H   0  0  0  0  0  0  0  0  0  0  0  0
   88.8010  120.3250  117.7230 H   0  0  0  0  0  0  0  0  0  0  0  0
   88.5300  122.0490  117.3660 H   0  0  0  0  0  0  0  0  0  0  0  0
  1 18  1  0  0  0  0
  1 40  1  1  0  0  0
  2 20  1  0  0  0  0
  2  1  1  0  0  0  0
  3  2  1  0  0  0  0
  3 22  1  0  0  0  0
  4 24  1  6  0  0  0
  4  3  1  0  0  0  0
  4  5  1  0  0  0  0
  5 15  1  0  0  0  0
  5 25  1  1  0  0  0
  6  5  1  0  0  0  0
  6 27  1  0  0  0  0
  7  6  1  0  0  0  0
  7 29  1  0  0  0  0
  8 14  1  0  0  0  0
  8  7  1  0  0  0  0
  9 30  1  0  0  0  0
  9  8  2  0  0  0  0
 10  9  1  0  0  0  0
 11 10  2  0  0  0  0
 12 10  1  0  0  0  0
 12 31  1  0  0  0  0
 12 13  1  0  0  0  0
 13 34  1  0  0  0  0
 13 14  1  0  0  0  0
 14  4  1  0  0  0  0
 14 44  1  1  0  0  0
 15 35  1  6  0  0  0
 15  1  1  0  0  0  0
 15 16  1  0  0  0  0
 16 17  1  0  0  0  0
 16 36  1  0  0  0  0
 17 39  1  0  0  0  0
 18 19  2  0  0  0  0
 18 17  1  0  0  0  0
 21  2  1  0  0  0  0
 23  3  1  0  0  0  0
 26  6  1  0  0  0  0
 28  7  1  0  0  0  0
 32 12  1  0  0  0  0
 33 13  1  0  0  0  0
 37 16  1  0  0  0  0
 38 17  1  0  0  0  0
 40 43  1  0  0  0  0
 40 41  1  0  0  0  0
 42 40  1  0  0  0  0
 44 47  1  0  0  0  0
 44 46  1  0  0  0  0
 45 44  1  0  0  0  0
M  END
>  <MODEL>
1

>  <REMARK>
 VINA RESULT:      -9.4      0.000      0.000
  Name = ANDROSTENEDIONE
  2 active torsions:
  status: ('A' for Active; 'I' for Inactive)
    1  A    between atoms: C_1  and  C_2
    2  A    between atoms: C_15  and  C_16
                            x       y       z     vdW  Elec       q    Type
                         _______ _______ _______ _____ _____    ______ ____

>  <TORSDO>
F 2

>  <vina_affinity>
-9.4

>  <vina_rmsd_lb>
0.000

>  <vina_rmsd_ub>
0.000

$$$$
ANDROSTENEDIONE
 OpenBabel09042222203D

 47 50  0  0  1  0  0  0  0  0999 V2000
   92.9390  122.1470  116.5930 C   0  0  1  0  0  0  0  0  0  0  0  0
   92.0140  123.0780  115.7880 C   0  0  0  0  0  0  0  0  0  0  0  0
   90.7720  122.3050  115.2750 C   0  0  0  0  0  0  0  0  0  0  0  0
   91.1180  120.9700  114.5280 C   0  0  1  0  0  0  0  0  0  0  0  0
   92.1650  120.0950  115.3030 C   0  0  1  0  0  0  0  0  0  0  0  0
   92.6130  118.9190  114.4210 C   0  0  0  0  0  0  0  0  0  0  0  0
   91.4250  118.0360  114.0500 C   0  0  0  0  0  0  0  0  0  0  0  0
   90.3230  118.8420  113.4010 C   0  0  0  0  0  0  0  0  0  0  0  0
   89.6540  118.2960  112.3690 C   0  0  0  0  0  0  0  0  0  0  0  0
   88.4840  118.9480  111.7650 C   0  0  0  0  0  0  0  0  0  0  0  0
   87.9110  118.4110  110.7800 O   0  0  0  0  0  0  0  0  0  0  0  0
   87.9270  120.2050  112.3510 C   0  0  0  0  0  0  0  0  0  0  0  0
   89.0260  120.9990  113.0610 C   0  0  0  0  0  0  0  0  0  0  0  0
   89.8530  120.1420  114.0740 C   0  0  2  0  0  0  0  0  0  0  0  0
   93.3560  120.9970  115.6680 C   0  0  2  0  0  0  0  0  0  0  0  0
   94.6180  120.4090  116.3030 C   0  0  0  0  0  0  0  0  0  0  0  0
   95.3590  121.6500  116.8290 C   0  0  0  0  0  0  0  0  0  0  0  0
   94.2850  122.6900  116.9400 C   0  0  0  0  0  0  0  0  0  0  0  0
   94.4850  123.8300  117.3310 O   0  0  0  0  0  0  0  0  0  0  0  0
   91.6830  123.9300  116.4230 H   0  0  0  0  0  0  0  0  0  0  0  0
   92.5620  123.5060  114.9200 H   0  0  0  0  0  0  0  0  0  0  0  0
   90.0940  122.1120  116.1280 H   0  0  0  0  0  0  0  0  0  0  0  0
   90.2300  122.9860  114.5870 H   0  0  0  0  0  0  0  0  0  0  0  0
   91.6290  121.2910  113.5900 H   0  0  0  0  0  0  0  0  0  0  0  0
   91.7290  119.6700  116.2290 H   0  0  0  0  0  0  0  0  0  0  0  0
   93.0990  119.2950  113.4920 H   0  0  0  0  0  0  0  0  0  0  0  0
   93.3530  118.2960  114.9680 H   0  0  0  0  0  0  0  0  0  0  0  0
   91.7910  117.2310  113.3740 H   0  0  0  0  0  0  0  0  0  0  0  0
   91.0240  117.5460  114.9640 H   0  0  0  0  0  0  0  0  0  0  0  0
   89.9700  117.3450  111.9560 H   0  0  0  0  0  0  0  0  0  0  0  0
   87.1140  119.9480  113.0630 H   0  0  0  0  0  0  0  0  0  0  0  0
   87.4880  120.8310  111.5440 H   0  0  0  0  0  0  0  0  0  0  0  0
   89.7030  121.4160  112.2810 H   0  0  0  0  0  0  0  0  0  0  0  0
   88.5440  121.8590  113.5730 H   0  0  0  0  0  0  0  0  0  0  0  0
   93.7160  121.4350  114.7020 H   0  0  0  0  0  0  0  0  0  0  0  0
   94.3550  119.7220  117.1350 H   0  0  0  0  0  0  0  0  0  0  0  0
   95.2360  119.8640  115.5550 H   0  0  0  0  0  0  0  0  0  0  0  0
   96.1300  121.9850  116.1020 H   0  0  0  0  0  0  0  0  0  0  0  0
   95.8220  121.4510  117.8200 H   0  0  0  0  0  0  0  0  0  0  0  0
   92.2700  121.7090  117.9270 C   0  0  0  0  0  0  0  0  0  0  0  0
   91.5090  122.4450  118.2620 H   0  0  0  0  0  0  0  0  0  0  0  0
   92.9940  121.5830  118.7550 H   0  0  0  0  0  0  0  0  0  0  0  0
   91.7580  120.7340  117.7880 H   0  0  0  0  0  0  0  0  0  0  0  0
   88.9520  119.7640  115.2770 C   0  0  0  0  0  0  0  0  0  0  0  0
   89.4240  118.9850  115.9110 H   0  0  0  0  0  0  0  0  0  0  0  0
   88.7680  120.6480  115.9250 H   0  0  0  0  0  0  0  0  0  0  0  0
   87.9600  119.3950  114.9510 H   0  0  0  0  0  0  0  0  0  0  0  0
  1 18  1  0  0  0  0
  1 40  1  1  0  0  0
  2 20  1  0  0  0  0
  2  1  1  0  0  0  0
  3  2  1  0  0  0  0
  3 22  1  0  0  0  0
  4 24  1  6  0  0  0
  4  3  1  0  0  0  0
  4  5  1  0  0  0  0
  5 15  1  0  0  0  0
  5 25  1  1  0  0  0
  6 27  1  0  0  0  0
  6  5  1  0  0  0  0
  7  6  1  0  0  0  0
  7 29  1  0  0  0  0
  8  7  1  0  0  0  0
  8 14  1  0  0  0  0
  9  8  2  0  0  0  0
 10 12  1  0  0  0  0
 10  9  1  0  0  0  0
 11 10  2  0  0  0  0
 12 13  1  0  0  0  0
 12 31  1  0  0  0  0
 13 34  1  0  0  0  0
 13 14  1  0  0  0  0
 14  4  1  0  0  0  0
 14 44  1  1  0  0  0
 15 35  1  6  0  0  0
 15 16  1  0  0  0  0
 15  1  1  0  0  0  0
 16 17  1  0  0  0  0
 16 36  1  0  0  0  0
 17 18  1  0  0  0  0
 17 39  1  0  0  0  0
 18 19  2  0  0  0  0
 21  2  1  0  0  0  0
 23  3  1  0  0  0  0
 26  6  1  0  0  0  0
 28  7  1  0  0  0  0
 30  9  1  0  0  0  0
 32 12  1  0  0  0  0
 33 13  1  0  0  0  0
 37 16  1  0  0  0  0
 38 17  1  0  0  0  0
 40 41  1  0  0  0  0
 40 42  1  0  0  0  0
 43 40  1  0  0  0  0
 44 45  1  0  0  0  0
 44 46  1  0  0  0  0
 47 44  1  0  0  0  0
M  END
>  <MODEL>
2

>  <REMARK>
 VINA RESULT:      -9.3      1.900      2.493
  Name = ANDROSTENEDIONE
  2 active torsions:
  status: ('A' for Active; 'I' for Inactive)
    1  A    between atoms: C_1  and  C_2
    2  A    between atoms: C_15  and  C_16
                            x       y       z     vdW  Elec       q    Type
                         _______ _______ _______ _____ _____    ______ ____

>  <TORSDO>
F 2

>  <vina_affinity>
-9.3

>  <vina_rmsd_lb>
1.900

>  <vina_rmsd_ub>
2.493

$$$$
TESTOSTERONE
 OpenBabel09042222203D

 49 52  0  0  1  0  0  0  0  0999 V2000
   89.0720  118.9450  111.6670 C   0  0  1  0  0  0  0  0  0  0  0  0
   88.2690  120.1080  112.2910 C   0  0  0  0  0  0  0  0  0  0  0  0
   89.1700  121.0120  113.1700 C   0  0  0  0  0  0  0  0  0  0  0  0
   89.9640  120.2010  114.2380 C   0  0  1  0  0  0  0  0  0  0  0  0
   90.7520  119.0080  113.5980 C   0  0  1  0  0  0  0  0  0  0  0  0
   91.5680  118.1960  114.6450 C   0  0  0  0  0  0  0  0  0  0  0  0
   91.3500  118.6190  116.1030 C   0  0  0  0  0  0  0  0  0  0  0  0
   91.3960  120.1210  116.2930 C   0  0  0  0  0  0  0  0  0  0  0  0
   91.7460  120.6000  117.4990 C   0  0  0  0  0  0  0  0  0  0  0  0
   91.5570  122.0140  117.8570 C   0  0  0  0  0  0  0  0  0  0  0  0
   92.0080  122.4410  118.9520 O   0  0  0  0  0  0  0  0  0  0  0  0
   90.8320  122.9560  116.9410 C   0  0  0  0  0  0  0  0  0  0  0  0
   90.0570  122.2040  115.8460 C   0  0  0  0  0  0  0  0  0  0  0  0
   90.8790  121.0530  115.1920 C   0  0  2  0  0  0  0  0  0  0  0  0
   89.7390  118.1510  112.8060 C   0  0  2  0  0  0  0  0  0  0  0  0
   90.1910  116.8530  112.1440 C   0  0  0  0  0  0  0  0  0  0  0  0
   89.1120  116.5810  111.0780 C   0  0  0  0  0  0  0  0  0  0  0  0
   88.2140  117.8370  111.0280 C   0  0  2  0  0  0  0  0  0  0  0  0
   87.4450  119.7060  112.9230 H   0  0  0  0  0  0  0  0  0  0  0  0
   87.7980  120.7190  111.4900 H   0  0  0  0  0  0  0  0  0  0  0  0
   88.4970  121.7380  113.6700 H   0  0  0  0  0  0  0  0  0  0  0  0
   89.8590  121.5990  112.5310 H   0  0  0  0  0  0  0  0  0  0  0  0
   89.1760  119.7560  114.8910 H   0  0  0  0  0  0  0  0  0  0  0  0
   91.4920  119.4040  112.8760 H   0  0  0  0  0  0  0  0  0  0  0  0
   92.6520  118.3100  114.4190 H   0  0  0  0  0  0  0  0  0  0  0  0
   91.3560  117.1100  114.5750 H   0  0  0  0  0  0  0  0  0  0  0  0
   90.3600  118.2480  116.4490 H   0  0  0  0  0  0  0  0  0  0  0  0
   92.1270  118.1230  116.7260 H   0  0  0  0  0  0  0  0  0  0  0  0
   92.1080  119.9260  118.2680 H   0  0  0  0  0  0  0  0  0  0  0  0
   90.1170  123.5660  117.5350 H   0  0  0  0  0  0  0  0  0  0  0  0
   91.5640  123.6540  116.4840 H   0  0  0  0  0  0  0  0  0  0  0  0
   89.1290  121.7840  116.2980 H   0  0  0  0  0  0  0  0  0  0  0  0
   89.7520  122.9520  115.0830 H   0  0  0  0  0  0  0  0  0  0  0  0
   88.9510  117.8460  113.5390 H   0  0  0  0  0  0  0  0  0  0  0  0
   91.1900  116.9770  111.6750 H   0  0  0  0  0  0  0  0  0  0  0  0
   90.2310  116.0150  112.8740 H   0  0  0  0  0  0  0  0  0  0  0  0
   89.5960  116.3980  110.0930 H   0  0  0  0  0  0  0  0  0  0  0  0
   88.5070  115.6890  111.3490 H   0  0  0  0  0  0  0  0  0  0  0  0
   87.3050  117.6600  111.6530 H   0  0  0  0  0  0  0  0  0  0  0  0
   90.0730  119.5050  110.6020 C   0  0  0  0  0  0  0  0  0  0  0  0
   89.5200  119.8430  109.7000 H   0  0  0  0  0  0  0  0  0  0  0  0
   90.8040  118.7370  110.2750 H   0  0  0  0  0  0  0  0  0  0  0  0
   90.6480  120.3810  110.9550 H   0  0  0  0  0  0  0  0  0  0  0  0
   92.0930  121.6510  114.4340 C   0  0  0  0  0  0  0  0  0  0  0  0
   91.9450  122.7220  114.1970 H   0  0  0  0  0  0  0  0  0  0  0  0
   92.2450  121.1470  113.4580 H   0  0  0  0  0  0  0  0  0  0  0  0
   93.0270  121.5400  115.0230 H   0  0  0  0  0  0  0  0  0  0  0  0
   87.8280  118.1480  109.7140 O   0  0  0  0  0  0  0  0  0  0  0  0
   88.1100  119.0850  109.5520 H   0  0  0  0  0  0  0  0  0  0  0  0
  1 40  1  6  0  0  0
  1  2  1  0  0  0  0
  1 15  1  0  0  0  0
  2 19  1  0  0  0  0
  2  3  1  0  0  0  0
  3 21  1  0  0  0  0
  3  4  1  0  0  0  0
  4 23  1  1  0  0  0
  4 14  1  0  0  0  0
  5 24  1  6  0  0  0
  5  4  1  0  0  0  0
  5  6  1  0  0  0  0
  6  7  1  0  0  0  0
  7  8  1  0  0  0  0
  7 27  1  0  0  0  0
  7 28  1  0  0  0  0
  8  9  2  0  0  0  0
  9 10  1  0  0  0  0
  9 29  1  0  0  0  0
 10 11  2  0  0  0  0
 12 30  1  0  0  0  0
 12 10  1  0  0  0  0
 13 32  1  0  0  0  0
 13 12  1  0  0  0  0
 14 44  1  6  0  0  0
 14 13  1  0  0  0  0
 14  8  1  0  0  0  0
 15 34  1  1  0  0  0
 15  5  1  0  0  0  0
 16 15  1  0  0  0  0
 16 36  1  0  0  0  0
 17 38  1  0  0  0  0
 17 16  1  0  0  0  0
 18 17  1  0  0  0  0
 18 39  1  1  0  0  0
 18  1  1  0  0  0  0
 20  2  1  0  0  0  0
 22  3  1  0  0  0  0
 25  6  1  0  0  0  0
 26  6  1  0  0  0  0
 31 12  1  0  0  0  0
 33 13  1  0  0  0  0
 35 16  1  0  0  0  0
 37 17  1  0  0  0  0
 40 43  1  0  0  0  0
 41 40  1  0  0  0  0
 42 40  1  0  0  0  0
 44 47  1  0  0  0  0
 45 44  1  0  0  0  0
 46 44  1  0  0  0  0
 48 18  1  0  0  0  0
 49 48  1  0  0  0  0
M  END
>  <MODEL>
1

>  <REMARK>
 VINA RESULT:      -9.5      0.000      0.000
  Name = TESTOSTERONE
  3 active torsions:
  status: ('A' for Active; 'I' for Inactive)
    1  A    between atoms: C_1  and  C_2
    2  A    between atoms: C_15  and  C_16
    3  A    between atoms: C_20  and  O_21
                            x       y       z     vdW  Elec       q    Type
                         _______ _______ _______ _____ _____    ______ ____

>  <TORSDO>
F 3

>  <vina_affinity>
-9.5

>  <vina_rmsd_lb>
0.000

>  <vina_rmsd_ub>
0.000

$$$$
TESTOSTERONE
 OpenBabel09042222203D

 49 52  0  0  1  0  0  0  0  0999 V2000
   91.1230  117.8520  114.8560 C   0  0  1  0  0  0  0  0  0  0  0  0
   92.3750  117.6340  115.7350 C   0  0  0  0  0  0  0  0  0  0  0  0
   92.8780  118.9660  116.3460 C   0  0  0  0  0  0  0  0  0  0  0  0
   93.0980  120.0690  115.2670 C   0  0  1  0  0  0  0  0  0  0  0  0
   91.8310  120.2620  114.3650 C   0  0  1  0  0  0  0  0  0  0  0  0
   92.0220  121.3740  113.2930 C   0  0  0  0  0  0  0  0  0  0  0  0
   93.4330  121.9740  113.2270 C   0  0  0  0  0  0  0  0  0  0  0  0
   93.9930  122.3110  114.5930 C   0  0  0  0  0  0  0  0  0  0  0  0
   94.9220  123.2780  114.6790 C   0  0  0  0  0  0  0  0  0  0  0  0
   95.7140  123.4860  115.9010 C   0  0  0  0  0  0  0  0  0  0  0  0
   96.4870  124.4780  115.9760 O   0  0  0  0  0  0  0  0  0  0  0  0
   95.6190  122.5360  117.0580 C   0  0  0  0  0  0  0  0  0  0  0  0
   94.9210  121.2230  116.6630 C   0  0  0  0  0  0  0  0  0  0  0  0
   93.6380  121.4450  115.8060 C   0  0  2  0  0  0  0  0  0  0  0  0
   91.4700  118.8840  113.7670 C   0  0  2  0  0  0  0  0  0  0  0  0
   90.3310  118.7640  112.7600 C   0  0  0  0  0  0  0  0  0  0  0  0
   89.9500  117.2710  112.8020 C   0  0  0  0  0  0  0  0  0  0  0  0
   90.7340  116.6480  113.9780 C   0  0  2  0  0  0  0  0  0  0  0  0
   93.1950  117.1900  115.1270 H   0  0  0  0  0  0  0  0  0  0  0  0
   92.1470  116.9140  116.5510 H   0  0  0  0  0  0  0  0  0  0  0  0
   93.8370  118.7380  116.8540 H   0  0  0  0  0  0  0  0  0  0  0  0
   92.1750  119.3160  117.1280 H   0  0  0  0  0  0  0  0  0  0  0  0
   93.9030  119.6610  114.6130 H   0  0  0  0  0  0  0  0  0  0  0  0
   90.9800  120.5890  114.9930 H   0  0  0  0  0  0  0  0  0  0  0  0
   91.3120  122.2030  113.5090 H   0  0  0  0  0  0  0  0  0  0  0  0
   91.7630  121.0110  112.2770 H   0  0  0  0  0  0  0  0  0  0  0  0
   94.1160  121.2490  112.7320 H   0  0  0  0  0  0  0  0  0  0  0  0
   93.3910  122.8820  112.5860 H   0  0  0  0  0  0  0  0  0  0  0  0
   95.1620  123.8800  113.8100 H   0  0  0  0  0  0  0  0  0  0  0  0
   96.6420  122.3030  117.4250 H   0  0  0  0  0  0  0  0  0  0  0  0
   95.0720  123.0270  117.8890 H   0  0  0  0  0  0  0  0  0  0  0  0
   95.6450  120.5990  116.0910 H   0  0  0  0  0  0  0  0  0  0  0  0
   94.6780  120.6830  117.6030 H   0  0  0  0  0  0  0  0  0  0  0  0
   92.3810  118.5350  113.2200 H   0  0  0  0  0  0  0  0  0  0  0  0
   89.4710  119.4010  113.0600 H   0  0  0  0  0  0  0  0  0  0  0  0
   90.6590  119.0500  111.7370 H   0  0  0  0  0  0  0  0  0  0  0  0
   88.8530  117.1690  112.9550 H   0  0  0  0  0  0  0  0  0  0  0  0
   90.2250  116.7690  111.8490 H   0  0  0  0  0  0  0  0  0  0  0  0
   91.6570  116.1590  113.5820 H   0  0  0  0  0  0  0  0  0  0  0  0
   89.9080  118.2510  115.7570 C   0  0  0  0  0  0  0  0  0  0  0  0
   89.1510  118.7980  115.1560 H   0  0  0  0  0  0  0  0  0  0  0  0
   90.2110  118.9140  116.5930 H   0  0  0  0  0  0  0  0  0  0  0  0
   89.3810  117.3840  116.1970 H   0  0  0  0  0  0  0  0  0  0  0  0
   92.5710  122.1860  116.6540 C   0  0  0  0  0  0  0  0  0  0  0  0
   92.5500  121.8240  117.7000 H   0  0  0  0  0  0  0  0  0  0  0  0
   91.5510  122.0110  116.2570 H   0  0  0  0  0  0  0  0  0  0  0  0
   92.7520  123.2800  116.6570 H   0  0  0  0  0  0  0  0  0  0  0  0
   89.9620  115.7030  114.6730 O   0  0  0  0  0  0  0  0  0  0  0  0
   90.5780  114.9660  114.9230 H   0  0  0  0  0  0  0  0  0  0  0  0
  1  2  1  0  0  0  0
  1 40  1  1  0  0  0
  2  3  1  0  0  0  0
  2 20  1  0  0  0  0
  3 21  1  0  0  0  0
  3 22  1  0  0  0  0
  4 23  1  6  0  0  0
  4 14  1  0  0  0  0
  4  3  1  0  0  0  0
  5 24  1  1  0  0  0
  5  4  1  0  0  0  0
  6 25  1  0  0  0  0
  6  5  1  0  0  0  0
  7  6  1  0  0  0  0
  7  8  1  0  0  0  0
  8  9  2  0  0  0  0
  8 14  1  0  0  0  0
  9 10  1  0  0  0  0
 10 11  2  0  0  0  0
 10 12  1  0  0  0  0
 12 30  1  0  0  0  0
 12 31  1  0  0  0  0
 13 12  1  0  0  0  0
 13 33  1  0  0  0  0
 14 44  1  1  0  0  0
 14 13  1  0  0  0  0
 15 34  1  6  0  0  0
 15  5  1  0  0  0  0
 15  1  1  0  0  0  0
 16 17  1  0  0  0  0
 16 35  1  0  0  0  0
 16 15  1  0  0  0  0
 17 37  1  0  0  0  0
 17 18  1  0  0  0  0
 18 39  1  6  0  0  0
 18 48  1  0  0  0  0
 18  1  1  0  0  0  0
 19  2  1  0  0  0  0
 26  6  1  0  0  0  0
 27  7  1  0  0  0  0
 28  7  1  0  0  0  0
 29  9  1  0  0  0  0
 32 13  1  0  0  0  0
 36 16  1  0  0  0  0
 38 17  1  0  0  0  0
 40 43  1  0  0  0  0
 40 42  1  0  0  0  0
 41 40  1  0  0  0  0
 44 47  1  0  0  0  0
 44 45  1  0  0  0  0
 46 44  1  0  0  0  0
 48 49  1  0  0  0  0
M  END
>  <MODEL>
2

>  <REMARK>
 VINA RESULT:      -9.1      2.765      4.248
  Name = TESTOSTERONE
  3 active torsions:
  status: ('A' for Active; 'I' for Inactive)
    1  A    between atoms: C_1  and  C_2
    2  A    between atoms: C_15  and  C_16
    3  A    between atoms: C_20  and  O_21
                            x       y       z     vdW  Elec       q    Type
                         _______ _______ _______ _____ _____    ______ ____

>  <TORSDO>
F 3

>  <vina_affinity>
-9.1

>  <vina_rmsd_lb>
2.765

>  <vina_rmsd_ub>
4.248

$$$$
ERGOCALCIFEROL
 OpenBabel09042222203D

 73 75  0  0  1  0  0  0  0  0999 V2000
   95.3180  123.9470  114.8010 C   0  0  0  0  0  0  0  0  0  0  0  0
   94.9280  124.1930  113.8280 H   0  0  0  0  0  0  0  0  0  0  0  0
   95.1930  122.6760  115.2370 C   0  0  0  0  0  0  0  0  0  0  0  0
   95.7890  122.2030  116.5540 C   0  0  0  0  0  0  0  0  0  0  0  0
   96.8630  122.4840  116.6010 H   0  0  0  0  0  0  0  0  0  0  0  0
   95.2620  122.6930  117.4000 H   0  0  0  0  0  0  0  0  0  0  0  0
   95.7220  120.6670  116.7180 C   0  0  0  0  0  0  0  0  0  0  0  0
   96.0320  120.3960  117.7510 H   0  0  0  0  0  0  0  0  0  0  0  0
   96.4690  120.2120  116.0310 H   0  0  0  0  0  0  0  0  0  0  0  0
   94.3340  120.0430  116.4180 C   0  0  0  0  0  0  0  0  0  0  0  0
   93.7770  119.9730  117.3770 H   0  0  0  0  0  0  0  0  0  0  0  0
   94.5010  118.9960  116.0850 H   0  0  0  0  0  0  0  0  0  0  0  0
   93.4940  120.8250  115.3540 C   0  0  1  0  0  0  0  0  0  0  0  0
   94.4470  121.6210  114.4430 C   0  0  1  0  0  0  0  0  0  0  0  0
   95.2260  120.9300  114.0440 H   0  0  0  0  0  0  0  0  0  0  0  0
   93.5950  122.0210  113.2410 C   0  0  0  0  0  0  0  0  0  0  0  0
   94.2240  122.1660  112.3350 H   0  0  0  0  0  0  0  0  0  0  0  0
   93.0240  122.9520  113.4440 H   0  0  0  0  0  0  0  0  0  0  0  0
   92.6210  120.8500  113.0610 C   0  0  0  0  0  0  0  0  0  0  0  0
   92.8670  120.2850  112.1350 H   0  0  0  0  0  0  0  0  0  0  0  0
   91.5840  121.2430  112.9700 H   0  0  0  0  0  0  0  0  0  0  0  0
   92.7730  119.9310  114.3010 C   0  0  2  0  0  0  0  0  0  0  0  0
   93.4730  119.1120  114.0090 H   0  0  0  0  0  0  0  0  0  0  0  0
   93.2160  127.1380  116.3480 C   0  0  2  0  0  0  0  0  0  0  0  0
   92.9100  127.0320  115.2810 H   0  0  0  0  0  0  0  0  0  0  0  0
   93.9090  125.8200  116.7580 C   0  0  0  0  0  0  0  0  0  0  0  0
   93.3620  124.9590  116.3320 H   0  0  0  0  0  0  0  0  0  0  0  0
   93.8230  125.6990  117.8610 H   0  0  0  0  0  0  0  0  0  0  0  0
   95.3850  125.8570  116.4310 C   0  0  0  0  0  0  0  0  0  0  0  0
   96.0020  125.0120  115.5750 C   0  0  0  0  0  0  0  0  0  0  0  0
   97.0600  125.1450  115.4070 H   0  0  0  0  0  0  0  0  0  0  0  0
   96.1140  126.9840  117.0720 C   0  0  0  0  0  0  0  0  0  0  0  0
   97.3960  126.8960  117.4490 C   0  0  0  0  0  0  0  0  0  0  0  0
   97.9770  125.9980  117.2880 H   0  0  0  0  0  0  0  0  0  0  0  0
   97.8780  127.7190  117.9610 H   0  0  0  0  0  0  0  0  0  0  0  0
   95.3060  128.2050  117.4400 C   0  0  0  0  0  0  0  0  0  0  0  0
   95.9430  129.1170  117.4090 H   0  0  0  0  0  0  0  0  0  0  0  0
   94.9150  128.0880  118.4740 H   0  0  0  0  0  0  0  0  0  0  0  0
   94.1340  128.3900  116.4620 C   0  0  0  0  0  0  0  0  0  0  0  0
   94.5560  128.6150  115.4570 H   0  0  0  0  0  0  0  0  0  0  0  0
   93.5410  129.2790  116.7660 H   0  0  0  0  0  0  0  0  0  0  0  0
   91.4390  127.8730  116.6180 H   0  0  0  0  0  0  0  0  0  0  0  0
   92.0680  127.3090  117.1410 O   0  0  0  0  0  0  0  0  0  0  0  0
   92.4800  121.7660  116.0820 C   0  0  0  0  0  0  0  0  0  0  0  0
   91.4490  121.6420  115.6940 H   0  0  0  0  0  0  0  0  0  0  0  0
   92.7560  122.8330  115.9740 H   0  0  0  0  0  0  0  0  0  0  0  0
   92.4550  121.5570  117.1710 H   0  0  0  0  0  0  0  0  0  0  0  0
   91.4220  119.2680  114.7140 C   0  0  1  0  0  0  0  0  0  0  0  0
   90.9950  119.8180  115.5820 H   0  0  0  0  0  0  0  0  0  0  0  0
   90.4410  119.3330  113.5630 C   0  0  0  0  0  0  0  0  0  0  0  0
   90.1660  120.3100  113.1800 H   0  0  0  0  0  0  0  0  0  0  0  0
   89.9860  118.2190  112.9620 C   0  0  0  0  0  0  0  0  0  0  0  0
   90.3220  117.2500  113.3220 H   0  0  0  0  0  0  0  0  0  0  0  0
   89.0550  118.2310  111.7650 C   0  0  2  0  0  0  0  0  0  0  0  0
   88.0310  118.2860  112.1990 H   0  0  0  0  0  0  0  0  0  0  0  0
   89.1050  116.9070  110.9790 C   0  0  0  0  0  0  0  0  0  0  0  0
   88.1460  116.7320  110.4490 H   0  0  0  0  0  0  0  0  0  0  0  0
   89.2590  116.0600  111.6810 H   0  0  0  0  0  0  0  0  0  0  0  0
   89.9280  116.8970  110.2370 H   0  0  0  0  0  0  0  0  0  0  0  0
   89.2300  119.5130  110.8940 C   0  0  0  0  0  0  0  0  0  0  0  0
   90.1880  119.9930  111.2010 H   0  0  0  0  0  0  0  0  0  0  0  0
   88.1230  120.5420  111.1730 C   0  0  0  0  0  0  0  0  0  0  0  0
   87.8930  120.5970  112.2570 H   0  0  0  0  0  0  0  0  0  0  0  0
   88.4250  121.5480  110.8140 H   0  0  0  0  0  0  0  0  0  0  0  0
   87.1930  120.2550  110.6360 H   0  0  0  0  0  0  0  0  0  0  0  0
   89.3260  119.2450  109.3830 C   0  0  0  0  0  0  0  0  0  0  0  0
   89.3980  118.1520  109.1980 H   0  0  0  0  0  0  0  0  0  0  0  0
   90.2230  119.7270  108.9420 H   0  0  0  0  0  0  0  0  0  0  0  0
   88.4170  119.6000  108.8610 H   0  0  0  0  0  0  0  0  0  0  0  0
   91.5900  117.7960  115.1110 C   0  0  0  0  0  0  0  0  0  0  0  0
   92.2520  117.7000  115.9980 H   0  0  0  0  0  0  0  0  0  0  0  0
   90.6110  117.3290  115.3330 H   0  0  0  0  0  0  0  0  0  0  0  0
   92.0380  117.2210  114.2710 H   0  0  0  0  0  0  0  0  0  0  0  0
  1  3  2  0  0  0  0
  1 30  1  0  0  0  0
  2  1  1  0  0  0  0
  3  4  1  0  0  0  0
  4  5  1  0  0  0  0
  4  7  1  0  0  0  0
  4  6  1  0  0  0  0
  7  8  1  0  0  0  0
  9  7  1  0  0  0  0
 10  7  1  0  0  0  0
 10 11  1  0  0  0  0
 12 10  1  0  0  0  0
 13 44  1  1  0  0  0
 13 10  1  0  0  0  0
 14 15  1  6  0  0  0
 14  3  1  0  0  0  0
 14 13  1  0  0  0  0
 16 18  1  0  0  0  0
 16 14  1  0  0  0  0
 17 16  1  0  0  0  0
 19 16  1  0  0  0  0
 19 22  1  0  0  0  0
 20 19  1  0  0  0  0
 21 19  1  0  0  0  0
 22 23  1  6  0  0  0
 22 48  1  0  0  0  0
 22 13  1  0  0  0  0
 24 25  1  6  0  0  0
 24 39  1  0  0  0  0
 24 26  1  0  0  0  0
 24 43  1  0  0  0  0
 26 28  1  0  0  0  0
 27 26  1  0  0  0  0
 29 26  1  0  0  0  0
 29 32  1  0  0  0  0
 30 29  2  0  0  0  0
 31 30  1  0  0  0  0
 32 36  1  0  0  0  0
 32 33  2  0  0  0  0
 33 35  1  0  0  0  0
 34 33  1  0  0  0  0
 36 38  1  0  0  0  0
 37 36  1  0  0  0  0
 39 41  1  0  0  0  0
 39 36  1  0  0  0  0
 40 39  1  0  0  0  0
 42 43  1  0  0  0  0
 44 47  1  0  0  0  0
 45 44  1  0  0  0  0
 46 44  1  0  0  0  0
 48 70  1  0  0  0  0
 48 49  1  1  0  0  0
 50 48  1  0  0  0  0
 51 50  1  0  0  0  0
 52 53  1  0  0  0  0
 52 50  2  0  0  0  0
 54 55  1  1  0  0  0
 54 52  1  0  0  0  0
 56 58  1  0  0  0  0
 56 54  1  0  0  0  0
 57 56  1  0  0  0  0
 59 56  1  0  0  0  0
 60 62  1  0  0  0  0
 60 61  1  0  0  0  0
 60 54  1  0  0  0  0
 62 63  1  0  0  0  0
 64 62  1  0  0  0  0
 65 62  1  0  0  0  0
 66 60  1  0  0  0  0
 67 66  1  0  0  0  0
 68 66  1  0  0  0  0
 69 66  1  0  0  0  0
 70 72  1  0  0  0  0
 70 71  1  0  0  0  0
 73 70  1  0  0  0  0
M  END
>  <MODEL>
1

>  <REMARK>
 VINA RESULT:      -9.4      0.000      0.000
  Name = ERGOCALCIFEROL
  11 active torsions:
  status: ('A' for Active; 'I' for Inactive)
    1  A    between atoms: O_2  and  C_3
    2  A    between atoms: C_9  and  C_11
    3  A    between atoms: C_23  and  C_24
    4  A    between atoms: C_36  and  C_38
    5  A    between atoms: C_38  and  C_40
    6  A    between atoms: C_38  and  C_60
    7  A    between atoms: C_42  and  C_44
    8  A    between atoms: C_44  and  C_46
    9  A    between atoms: C_44  and  C_50
   10  A    between atoms: C_50  and  C_52
   11  A    between atoms: C_50  and  C_56
                            x       y       z     vdW  Elec       q    Type
                         _______ _______ _______ _____ _____    ______ ____

>  <TORSDO>
F 11

>  <vina_affinity>
-9.4

>  <vina_rmsd_lb>
0.000

>  <vina_rmsd_ub>
0.000

$$$$
ERGOCALCIFEROL
 OpenBabel09042222203D

 73 75  0  0  1  0  0  0  0  0999 V2000
   92.7180  125.9190  117.2430 C   0  0  0  0  0  0  0  0  0  0  0  0
   92.0820  126.0020  116.3780 H   0  0  0  0  0  0  0  0  0  0  0  0
   93.2270  124.7070  117.5480 C   0  0  0  0  0  0  0  0  0  0  0  0
   94.2090  124.5000  118.6920 C   0  0  0  0  0  0  0  0  0  0  0  0
   95.0500  125.2180  118.5980 H   0  0  0  0  0  0  0  0  0  0  0  0
   93.6970  124.6840  119.6610 H   0  0  0  0  0  0  0  0  0  0  0  0
   94.8280  123.0830  118.6920 C   0  0  0  0  0  0  0  0  0  0  0  0
   95.4160  122.9420  119.6250 H   0  0  0  0  0  0  0  0  0  0  0  0
   95.5500  123.0200  117.8480 H   0  0  0  0  0  0  0  0  0  0  0  0
   93.8030  121.9280  118.5500 C   0  0  0  0  0  0  0  0  0  0  0  0
   93.5240  121.5920  119.5720 H   0  0  0  0  0  0  0  0  0  0  0  0
   94.3290  121.0690  118.0800 H   0  0  0  0  0  0  0  0  0  0  0  0
   92.5250  122.2990  117.7280 C   0  0  1  0  0  0  0  0  0  0  0  0
   92.8580  123.4590  116.7710 C   0  0  1  0  0  0  0  0  0  0  0  0
   93.7640  123.1880  116.1780 H   0  0  0  0  0  0  0  0  0  0  0  0
   91.7040  123.4850  115.7730 C   0  0  0  0  0  0  0  0  0  0  0  0
   92.0250  123.9180  114.8000 H   0  0  0  0  0  0  0  0  0  0  0  0
   90.8430  124.0690  116.1670 H   0  0  0  0  0  0  0  0  0  0  0  0
   91.3000  122.0130  115.6210 C   0  0  0  0  0  0  0  0  0  0  0  0
   91.5780  121.6410  114.6110 H   0  0  0  0  0  0  0  0  0  0  0  0
   90.1980  121.9190  115.7420 H   0  0  0  0  0  0  0  0  0  0  0  0
   92.0610  121.2140  116.7110 C   0  0  2  0  0  0  0  0  0  0  0  0
   92.9700  120.7910  116.2210 H   0  0  0  0  0  0  0  0  0  0  0  0
   95.8130  128.4070  116.1340 C   0  0  2  0  0  0  0  0  0  0  0  0
   96.2170  127.3670  116.1450 H   0  0  0  0  0  0  0  0  0  0  0  0
   94.2720  128.2970  116.1240 C   0  0  0  0  0  0  0  0  0  0  0  0
   93.9570  127.4810  115.4490 H   0  0  0  0  0  0  0  0  0  0  0  0
   93.8500  129.2240  115.6730 H   0  0  0  0  0  0  0  0  0  0  0  0
   93.7250  128.2030  117.5310 C   0  0  0  0  0  0  0  0  0  0  0  0
   93.0240  127.1510  118.0110 C   0  0  0  0  0  0  0  0  0  0  0  0
   92.6970  127.1880  119.0400 H   0  0  0  0  0  0  0  0  0  0  0  0
   94.1040  129.3470  118.4020 C   0  0  0  0  0  0  0  0  0  0  0  0
   93.3120  129.8050  119.3800 C   0  0  0  0  0  0  0  0  0  0  0  0
   92.3570  129.3500  119.6010 H   0  0  0  0  0  0  0  0  0  0  0  0
   93.5980  130.6750  119.9590 H   0  0  0  0  0  0  0  0  0  0  0  0
   95.3630  130.0980  118.0410 C   0  0  0  0  0  0  0  0  0  0  0  0
   95.8280  130.5380  118.9510 H   0  0  0  0  0  0  0  0  0  0  0  0
   95.1090  130.9260  117.3450 H   0  0  0  0  0  0  0  0  0  0  0  0
   96.3790  129.1560  117.3760 C   0  0  0  0  0  0  0  0  0  0  0  0
   96.6980  128.4040  118.1310 H   0  0  0  0  0  0  0  0  0  0  0  0
   97.2870  129.7350  117.0980 H   0  0  0  0  0  0  0  0  0  0  0  0
   95.4080  129.2260  114.4210 H   0  0  0  0  0  0  0  0  0  0  0  0
   96.2270  129.0490  114.9550 O   0  0  0  0  0  0  0  0  0  0  0  0
   91.3700  122.6810  118.7100 C   0  0  0  0  0  0  0  0  0  0  0  0
   91.3850  123.7600  118.9660 H   0  0  0  0  0  0  0  0  0  0  0  0
   91.4270  122.1080  119.6560 H   0  0  0  0  0  0  0  0  0  0  0  0
   90.3800  122.4560  118.2660 H   0  0  0  0  0  0  0  0  0  0  0  0
   91.2230  120.0160  117.2580 C   0  0  1  0  0  0  0  0  0  0  0  0
   91.1870  120.0710  118.3680 H   0  0  0  0  0  0  0  0  0  0  0  0
   89.8100  120.0850  116.7190 C   0  0  0  0  0  0  0  0  0  0  0  0
   89.4190  121.0560  116.4330 H   0  0  0  0  0  0  0  0  0  0  0  0
   89.0810  118.9750  116.5090 C   0  0  0  0  0  0  0  0  0  0  0  0
   89.5140  118.0060  116.7460 H   0  0  0  0  0  0  0  0  0  0  0  0
   87.6870  118.9860  115.9110 C   0  0  2  0  0  0  0  0  0  0  0  0
   87.5230  117.9470  115.5450 H   0  0  0  0  0  0  0  0  0  0  0  0
   87.5990  119.8860  114.6650 C   0  0  0  0  0  0  0  0  0  0  0  0
   87.2650  120.9060  114.9440 H   0  0  0  0  0  0  0  0  0  0  0  0
   86.8520  119.4720  113.9540 H   0  0  0  0  0  0  0  0  0  0  0  0
   88.5720  119.9620  114.1390 H   0  0  0  0  0  0  0  0  0  0  0  0
   86.5870  119.2500  116.9850 C   0  0  0  0  0  0  0  0  0  0  0  0
   86.9350  118.7880  117.9360 H   0  0  0  0  0  0  0  0  0  0  0  0
   85.2660  118.5520  116.6240 C   0  0  0  0  0  0  0  0  0  0  0  0
   84.4040  119.2420  116.7400 H   0  0  0  0  0  0  0  0  0  0  0  0
   85.2940  118.1780  115.5790 H   0  0  0  0  0  0  0  0  0  0  0  0
   85.1030  117.6780  117.2920 H   0  0  0  0  0  0  0  0  0  0  0  0
   86.3280  120.7370  117.2750 C   0  0  0  0  0  0  0  0  0  0  0  0
   85.2470  120.9010  117.4690 H   0  0  0  0  0  0  0  0  0  0  0  0
   86.6220  121.3760  116.4170 H   0  0  0  0  0  0  0  0  0  0  0  0
   86.8700  121.0620  118.1840 H   0  0  0  0  0  0  0  0  0  0  0  0
   91.8150  118.6590  116.8600 C   0  0  0  0  0  0  0  0  0  0  0  0
   92.3230  118.7240  115.8740 H   0  0  0  0  0  0  0  0  0  0  0  0
   92.5380  118.3020  117.6200 H   0  0  0  0  0  0  0  0  0  0  0  0
   91.0110  117.8930  116.7950 H   0  0  0  0  0  0  0  0  0  0  0  0
  1  3  2  0  0  0  0
  1 30  1  0  0  0  0
  2  1  1  0  0  0  0
  3  4  1  0  0  0  0
  4  6  1  0  0  0  0
  5  4  1  0  0  0  0
  7  4  1  0  0  0  0
  7  8  1  0  0  0  0
  9  7  1  0  0  0  0
 10  7  1  0  0  0  0
 10 11  1  0  0  0  0
 12 10  1  0  0  0  0
 13 10  1  0  0  0  0
 13 44  1  1  0  0  0
 14 15  1  6  0  0  0
 14  3  1  0  0  0  0
 14 13  1  0  0  0  0
 16 18  1  0  0  0  0
 16 14  1  0  0  0  0
 17 16  1  0  0  0  0
 19 21  1  0  0  0  0
 19 16  1  0  0  0  0
 19 22  1  0  0  0  0
 20 19  1  0  0  0  0
 22 23  1  6  0  0  0
 22 48  1  0  0  0  0
 22 13  1  0  0  0  0
 24 25  1  6  0  0  0
 24 39  1  0  0  0  0
 26 24  1  0  0  0  0
 26 29  1  0  0  0  0
 27 26  1  0  0  0  0
 28 26  1  0  0  0  0
 29 30  2  0  0  0  0
 29 32  1  0  0  0  0
 30 31  1  0  0  0  0
 32 33  2  0  0  0  0
 33 34  1  0  0  0  0
 33 35  1  0  0  0  0
 36 32  1  0  0  0  0
 36 37  1  0  0  0  0
 38 36  1  0  0  0  0
 39 36  1  0  0  0  0
 39 40  1  0  0  0  0
 41 39  1  0  0  0  0
 42 43  1  0  0  0  0
 43 24  1  0  0  0  0
 44 45  1  0  0  0  0
 44 46  1  0  0  0  0
 47 44  1  0  0  0  0
 48 49  1  1  0  0  0
 50 48  1  0  0  0  0
 51 50  1  0  0  0  0
 52 50  2  0  0  0  0
 52 53  1  0  0  0  0
 54 55  1  6  0  0  0
 54 52  1  0  0  0  0
 54 60  1  0  0  0  0
 56 57  1  0  0  0  0
 56 54  1  0  0  0  0
 58 56  1  0  0  0  0
 59 56  1  0  0  0  0
 60 66  1  0  0  0  0
 60 61  1  0  0  0  0
 62 63  1  0  0  0  0
 62 60  1  0  0  0  0
 62 65  1  0  0  0  0
 64 62  1  0  0  0  0
 66 67  1  0  0  0  0
 66 69  1  0  0  0  0
 68 66  1  0  0  0  0
 70 48  1  0  0  0  0
 70 72  1  0  0  0  0
 71 70  1  0  0  0  0
 73 70  1  0  0  0  0
M  END
>  <MODEL>
2

>  <REMARK>
 VINA RESULT:      -9.1      3.067      4.066
  Name = ERGOCALCIFEROL
  11 active torsions:
  status: ('A' for Active; 'I' for Inactive)
    1  A    between atoms: O_2  and  C_3
    2  A    between atoms: C_9  and  C_11
    3  A    between atoms: C_23  and  C_24
    4  A    between atoms: C_36  and  C_38
    5  A    between atoms: C_38  and  C_40
    6  A    between atoms: C_38  and  C_60
    7  A    between atoms: C_42  and  C_44
    8  A    between atoms: C_44  and  C_46
    9  A    between atoms: C_44  and  C_50
   10  A    between atoms: C_50  and  C_52
   11  A    between atoms: C_50  and  C_56
                            x       y       z     vdW  Elec       q    Type
                         _______ _______ _______ _____ _____    ______ ____

>  <TORSDO>
F 11

>  <vina_affinity>
-9.1

>  <vina_rmsd_lb>
3.067

>  <vina_rmsd_ub>
4.066

$$$$
CHOLECALCIFEROL
 OpenBabel09042222203D

 72 74  0  0  1  0  0  0  0  0999 V2000
   94.9460  121.9280  117.7610 C   0  0  0  0  0  3  0  0  0  0  0  0
   95.8250  121.3390  117.9880 H   0  0  0  0  0  0  0  0  0  0  0  0
   94.0780  121.4530  116.8430 C   0  0  2  0  0  3  0  0  0  0  0  0
   94.5710  120.3040  115.9700 C   0  0  0  0  0  0  0  0  0  0  0  0
   95.3490  120.7090  115.2820 H   0  0  0  0  0  0  0  0  0  0  0  0
   95.0770  119.5480  116.6160 H   0  0  0  0  0  0  0  0  0  0  0  0
   93.5030  119.5540  115.1280 C   0  0  0  0  0  0  0  0  0  0  0  0
   93.9640  119.2250  114.1690 H   0  0  0  0  0  0  0  0  0  0  0  0
   93.2130  118.6220  115.6630 H   0  0  0  0  0  0  0  0  0  0  0  0
   92.2230  120.3510  114.8060 C   0  0  0  0  0  0  0  0  0  0  0  0
   92.4340  121.0710  113.9800 H   0  0  0  0  0  0  0  0  0  0  0  0
   91.4640  119.6380  114.4300 H   0  0  0  0  0  0  0  0  0  0  0  0
   91.6980  121.0970  116.0530 C   0  0  1  0  0  0  0  0  0  0  0  0
   92.7770  122.1310  116.4350 C   0  0  1  0  0  0  0  0  0  0  0  0
   93.0380  122.7410  115.5380 H   0  0  0  0  0  0  0  0  0  0  0  0
   92.0480  123.0880  117.3840 C   0  0  0  0  0  0  0  0  0  0  0  0
   92.4680  124.1150  117.3390 H   0  0  0  0  0  0  0  0  0  0  0  0
   92.0830  122.7100  118.4280 H   0  0  0  0  0  0  0  0  0  0  0  0
   90.6010  123.1290  116.8760 C   0  0  0  0  0  0  0  0  0  0  0  0
   90.3730  124.1260  116.4350 H   0  0  0  0  0  0  0  0  0  0  0  0
   89.9130  122.9760  117.7300 H   0  0  0  0  0  0  0  0  0  0  0  0
   90.4810  122.0330  115.7940 C   0  0  2  0  0  0  0  0  0  0  0  0
   90.7000  122.5620  114.8340 H   0  0  0  0  0  0  0  0  0  0  0  0
   96.9310  125.5280  116.0260 C   0  0  2  0  0  0  0  0  0  0  0  0
   97.7960  125.2880  115.3630 H   0  0  0  0  0  0  0  0  0  0  0  0
   96.3200  124.2080  116.5340 C   0  0  0  0  0  0  0  0  0  0  0  0
   97.1550  123.5150  116.7820 H   0  0  0  0  0  0  0  0  0  0  0  0
   95.7330  123.7490  115.7100 H   0  0  0  0  0  0  0  0  0  0  0  0
   95.4430  124.3700  117.7670 C   0  0  0  0  0  0  0  0  0  0  0  0
   94.9000  123.2780  118.3550 C   0  0  0  0  0  0  0  0  0  0  0  0
   94.3390  123.3810  119.2700 H   0  0  0  0  0  0  0  0  0  0  0  0
   95.2920  125.7250  118.3920 C   0  0  0  0  0  0  0  0  0  0  0  0
   94.2090  126.0590  119.1080 C   0  0  0  0  0  0  0  0  0  0  0  0
   94.1040  127.0560  119.5200 H   0  0  0  0  0  0  0  0  0  0  0  0
   93.3890  125.3710  119.2740 H   0  0  0  0  0  0  0  0  0  0  0  0
   96.3080  126.8150  118.1140 C   0  0  0  0  0  0  0  0  0  0  0  0
   96.7400  127.1720  119.0770 H   0  0  0  0  0  0  0  0  0  0  0  0
   95.7930  127.6740  117.6300 H   0  0  0  0  0  0  0  0  0  0  0  0
   97.4540  126.3560  117.2050 C   0  0  0  0  0  0  0  0  0  0  0  0
   98.1800  125.7510  117.7940 H   0  0  0  0  0  0  0  0  0  0  0  0
   97.9900  127.2510  116.8200 H   0  0  0  0  0  0  0  0  0  0  0  0
   95.9550  127.1770  115.7110 H   0  0  0  0  0  0  0  0  0  0  0  0
   95.9800  126.2710  115.3040 O   0  0  0  0  0  0  0  0  0  0  0  0
   91.4200  120.0930  117.2130 C   0  0  0  0  0  0  0  0  0  0  0  0
   92.2360  120.1280  117.9600 H   0  0  0  0  0  0  0  0  0  0  0  0
   90.4870  120.3310  117.7620 H   0  0  0  0  0  0  0  0  0  0  0  0
   91.3010  119.0560  116.8470 H   0  0  0  0  0  0  0  0  0  0  0  0
   89.0220  121.4740  115.6080 C   0  0  2  0  0  0  0  0  0  0  0  0
   88.4280  122.3660  115.2970 H   0  0  0  0  0  0  0  0  0  0  0  0
   88.3180  120.9260  116.8700 C   0  0  0  0  0  0  0  0  0  0  0  0
   88.6260  121.4670  117.7870 H   0  0  0  0  0  0  0  0  0  0  0  0
   88.6030  119.8640  117.0130 H   0  0  0  0  0  0  0  0  0  0  0  0
   87.2180  120.9500  116.7950 H   0  0  0  0  0  0  0  0  0  0  0  0
   88.9340  120.4570  114.4430 C   0  0  0  0  0  0  0  0  0  0  0  0
   89.8060  119.7660  114.4920 H   0  0  0  0  0  0  0  0  0  0  0  0
   88.0050  119.8510  114.5370 H   0  0  0  0  0  0  0  0  0  0  0  0
   88.9410  121.1320  113.0610 C   0  0  0  0  0  0  0  0  0  0  0  0
   89.9850  121.3980  112.7930 H   0  0  0  0  0  0  0  0  0  0  0  0
   88.3330  122.0590  113.1150 H   0  0  0  0  0  0  0  0  0  0  0  0
   88.3450  120.1940  111.9940 C   0  0  0  0  0  0  0  0  0  0  0  0
   87.8850  120.8100  111.1880 H   0  0  0  0  0  0  0  0  0  0  0  0
   87.5250  119.5950  112.4500 H   0  0  0  0  0  0  0  0  0  0  0  0
   89.3600  119.2220  111.3490 C   0  0  0  0  0  0  0  0  0  0  0  0
   90.3280  119.3650  111.8840 H   0  0  0  0  0  0  0  0  0  0  0  0
   88.9610  117.7480  111.5220 C   0  0  0  0  0  0  0  0  0  0  0  0
   89.3770  117.3400  112.4640 H   0  0  0  0  0  0  0  0  0  0  0  0
   89.3630  117.1460  110.6770 H   0  0  0  0  0  0  0  0  0  0  0  0
   87.8580  117.6330  111.5330 H   0  0  0  0  0  0  0  0  0  0  0  0
   89.6140  119.5490  109.8700 C   0  0  0  0  0  0  0  0  0  0  0  0
   90.3770  118.8490  109.4580 H   0  0  0  0  0  0  0  0  0  0  0  0
   89.9990  120.5870  109.7720 H   0  0  0  0  0  0  0  0  0  0  0  0
   88.6870  119.4500  109.2690 H   0  0  0  0  0  0  0  0  0  0  0  0
  1  2  1  0  0  0  0
  1 30  1  0  0  0  0
  3  1  1  6  0  0  0
  4  6  1  0  0  0  0
  4  3  1  0  0  0  0
  5  4  1  0  0  0  0
  7  9  1  0  0  0  0
  7  4  1  0  0  0  0
  8  7  1  0  0  0  0
 10  7  1  0  0  0  0
 10 13  1  0  0  0  0
 11 10  1  0  0  0  0
 12 10  1  0  0  0  0
 13 14  1  0  0  0  0
 13 44  1  1  0  0  0
 14 15  1  6  0  0  0
 14  3  1  0  0  0  0
 14 16  1  0  0  0  0
 16 18  1  0  0  0  0
 17 16  1  0  0  0  0
 19 16  1  0  0  0  0
 19 21  1  0  0  0  0
 20 19  1  0  0  0  0
 22 23  1  6  0  0  0
 22 13  1  0  0  0  0
 22 19  1  0  0  0  0
 24 25  1  6  0  0  0
 24 26  1  0  0  0  0
 24 39  1  0  0  0  0
 26 27  1  0  0  0  0
 26 29  1  0  0  0  0
 28 26  1  0  0  0  0
 29 30  2  0  0  0  0
 29 32  1  0  0  0  0
 30 31  1  0  0  0  0
 32 33  2  0  0  0  0
 33 35  1  0  0  0  0
 33 34  1  0  0  0  0
 36 32  1  0  0  0  0
 36 37  1  0  0  0  0
 38 36  1  0  0  0  0
 39 40  1  0  0  0  0
 39 36  1  0  0  0  0
 41 39  1  0  0  0  0
 43 42  1  0  0  0  0
 43 24  1  0  0  0  0
 44 46  1  0  0  0  0
 44 45  1  0  0  0  0
 47 44  1  0  0  0  0
 48 49  1  6  0  0  0
 48 22  1  0  0  0  0
 48 50  1  0  0  0  0
 50 52  1  0  0  0  0
 50 51  1  0  0  0  0
 53 50  1  0  0  0  0
 54 55  1  0  0  0  0
 54 56  1  0  0  0  0
 54 48  1  0  0  0  0
 57 59  1  0  0  0  0
 57 54  1  0  0  0  0
 58 57  1  0  0  0  0
 60 62  1  0  0  0  0
 60 57  1  0  0  0  0
 61 60  1  0  0  0  0
 63 65  1  0  0  0  0
 63 64  1  0  0  0  0
 63 60  1  0  0  0  0
 65 68  1  0  0  0  0
 65 66  1  0  0  0  0
 67 65  1  0  0  0  0
 69 63  1  0  0  0  0
 70 69  1  0  0  0  0
 71 69  1  0  0  0  0
 72 69  1  0  0  0  0
M  END
>  <MODEL>
1

>  <REMARK>
 VINA RESULT:      -9.5      0.000      0.000
  Name = CHOLECALCIFEROL
  11 active torsions:
  status: ('A' for Active; 'I' for Inactive)
    1  A    between atoms: O_2  and  C_3
    2  A    between atoms: C_9  and  C_11
    3  A    between atoms: C_23  and  C_24
    4  A    between atoms: C_36  and  C_38
    5  A    between atoms: C_38  and  C_40
    6  A    between atoms: C_38  and  C_44
    7  A    between atoms: C_44  and  C_47
    8  A    between atoms: C_47  and  C_50
    9  A    between atoms: C_50  and  C_53
   10  A    between atoms: C_53  and  C_55
   11  A    between atoms: C_53  and  C_59
                            x       y       z     vdW  Elec       q    Type
                         _______ _______ _______ _____ _____    ______ ____

>  <TORSDO>
F 11

>  <vina_affinity>
-9.5

>  <vina_rmsd_lb>
0.000

>  <vina_rmsd_ub>
0.000

$$$$
CHOLECALCIFEROL
 OpenBabel09042222203D

 72 74  0  0  1  0  0  0  0  0999 V2000
   95.7920  125.0800  117.2410 C   0  0  0  0  0  3  0  0  0  0  0  0
   96.8570  125.0110  117.4180 H   0  0  0  0  0  0  0  0  0  0  0  0
   95.2460  124.2680  116.3100 C   0  0  2  0  0  3  0  0  0  0  0  0
   96.2140  123.5700  115.3630 C   0  0  0  0  0  0  0  0  0  0  0  0
   96.6480  124.3440  114.6880 H   0  0  0  0  0  0  0  0  0  0  0  0
   97.0620  123.1490  115.9550 H   0  0  0  0  0  0  0  0  0  0  0  0
   95.6390  122.4170  114.4950 C   0  0  0  0  0  0  0  0  0  0  0  0
   96.1610  122.4100  113.5110 H   0  0  0  0  0  0  0  0  0  0  0  0
   95.8870  121.4450  114.9780 H   0  0  0  0  0  0  0  0  0  0  0  0
   94.1200  122.4640  114.2410 C   0  0  0  0  0  0  0  0  0  0  0  0
   93.9000  123.2260  113.4560 H   0  0  0  0  0  0  0  0  0  0  0  0
   93.8130  121.4810  113.8350 H   0  0  0  0  0  0  0  0  0  0  0  0
   93.3440  122.7850  115.5380 C   0  0  1  0  0  0  0  0  0  0  0  0
   93.7630  124.2060  115.9640 C   0  0  1  0  0  0  0  0  0  0  0  0
   93.6390  124.9020  115.1010 H   0  0  0  0  0  0  0  0  0  0  0  0
   92.6930  124.6170  116.9790 C   0  0  0  0  0  0  0  0  0  0  0  0
   92.5300  125.7150  116.9890 H   0  0  0  0  0  0  0  0  0  0  0  0
   92.9610  124.2640  117.9990 H   0  0  0  0  0  0  0  0  0  0  0  0
   91.4040  123.9360  116.4980 C   0  0  0  0  0  0  0  0  0  0  0  0
   90.6820  124.6960  116.1210 H   0  0  0  0  0  0  0  0  0  0  0  0
   90.9270  123.4170  117.3520 H   0  0  0  0  0  0  0  0  0  0  0  0
   91.8100  122.9800  115.3550 C   0  0  2  0  0  0  0  0  0  0  0  0
   91.6880  123.5870  114.4250 H   0  0  0  0  0  0  0  0  0  0  0  0
   95.7840  129.3060  115.8110 C   0  0  2  0  0  0  0  0  0  0  0  0
   96.6590  129.5640  115.1690 H   0  0  0  0  0  0  0  0  0  0  0  0
   95.8890  127.8220  116.2120 C   0  0  0  0  0  0  0  0  0  0  0  0
   96.9550  127.6040  116.4490 H   0  0  0  0  0  0  0  0  0  0  0  0
   95.6030  127.1970  115.3390 H   0  0  0  0  0  0  0  0  0  0  0  0
   95.0390  127.4480  117.4170 C   0  0  0  0  0  0  0  0  0  0  0  0
   95.0920  126.1910  117.9150 C   0  0  0  0  0  0  0  0  0  0  0  0
   94.5480  125.9420  118.8110 H   0  0  0  0  0  0  0  0  0  0  0  0
   94.2460  128.5110  118.1180 C   0  0  0  0  0  0  0  0  0  0  0  0
   93.1330  128.2250  118.8100 C   0  0  0  0  0  0  0  0  0  0  0  0
   92.5550  129.0130  119.2780 H   0  0  0  0  0  0  0  0  0  0  0  0
   92.7500  127.2160  118.9010 H   0  0  0  0  0  0  0  0  0  0  0  0
   94.6040  129.9730  117.9480 C   0  0  0  0  0  0  0  0  0  0  0  0
   94.8050  130.4240  118.9470 H   0  0  0  0  0  0  0  0  0  0  0  0
   93.7390  130.5080  117.4970 H   0  0  0  0  0  0  0  0  0  0  0  0
   95.8330  130.1950  117.0580 C   0  0  0  0  0  0  0  0  0  0  0  0
   96.7600  129.9760  117.6360 H   0  0  0  0  0  0  0  0  0  0  0  0
   95.8680  131.2640  116.7500 H   0  0  0  0  0  0  0  0  0  0  0  0
   93.8600  129.5680  115.7670 H   0  0  0  0  0  0  0  0  0  0  0  0
   94.5950  129.5460  115.0980 O   0  0  0  0  0  0  0  0  0  0  0  0
   93.6650  121.7300  116.6410 C   0  0  0  0  0  0  0  0  0  0  0  0
   94.7370  121.4580  116.6160 H   0  0  0  0  0  0  0  0  0  0  0  0
   93.4650  122.1130  117.6620 H   0  0  0  0  0  0  0  0  0  0  0  0
   93.0510  120.8160  116.5340 H   0  0  0  0  0  0  0  0  0  0  0  0
   90.8300  121.7640  115.1600 C   0  0  2  0  0  0  0  0  0  0  0  0
   91.5080  120.8870  115.0370 H   0  0  0  0  0  0  0  0  0  0  0  0
   89.9390  121.7810  113.8980 C   0  0  0  0  0  0  0  0  0  0  0  0
   89.0150  121.1830  114.0330 H   0  0  0  0  0  0  0  0  0  0  0  0
   90.4950  121.3280  113.0520 H   0  0  0  0  0  0  0  0  0  0  0  0
   89.6600  122.8000  113.5800 H   0  0  0  0  0  0  0  0  0  0  0  0
   89.9830  121.4930  116.4280 C   0  0  0  0  0  0  0  0  0  0  0  0
   90.4920  121.9380  117.3130 H   0  0  0  0  0  0  0  0  0  0  0  0
   88.9830  121.9720  116.3260 H   0  0  0  0  0  0  0  0  0  0  0  0
   89.7810  119.9930  116.7010 C   0  0  0  0  0  0  0  0  0  0  0  0
   89.2850  119.5290  115.8220 H   0  0  0  0  0  0  0  0  0  0  0  0
   89.1270  119.8770  117.5900 H   0  0  0  0  0  0  0  0  0  0  0  0
   91.1330  119.3020  116.9680 C   0  0  0  0  0  0  0  0  0  0  0  0
   91.1130  118.8540  117.9870 H   0  0  0  0  0  0  0  0  0  0  0  0
   91.9410  120.0670  116.9680 H   0  0  0  0  0  0  0  0  0  0  0  0
   91.5050  118.1960  115.9530 C   0  0  0  0  0  0  0  0  0  0  0  0
   90.6720  118.1440  115.2130 H   0  0  0  0  0  0  0  0  0  0  0  0
   92.7860  118.5190  115.1680 C   0  0  0  0  0  0  0  0  0  0  0  0
   93.1790  119.5150  115.4560 H   0  0  0  0  0  0  0  0  0  0  0  0
   92.5680  118.5350  114.0780 H   0  0  0  0  0  0  0  0  0  0  0  0
   93.5690  117.7550  115.3530 H   0  0  0  0  0  0  0  0  0  0  0  0
   91.6030  116.8140  116.6140 C   0  0  0  0  0  0  0  0  0  0  0  0
   92.4900  116.7840  117.2880 H   0  0  0  0  0  0  0  0  0  0  0  0
   91.7250  116.0290  115.8370 H   0  0  0  0  0  0  0  0  0  0  0  0
   90.6990  116.5890  117.2170 H   0  0  0  0  0  0  0  0  0  0  0  0
  1  2  1  0  0  0  0
  1 30  1  0  0  0  0
  3  1  1  6  0  0  0
  4  6  1  0  0  0  0
  4  3  1  0  0  0  0
  5  4  1  0  0  0  0
  7  9  1  0  0  0  0
  7  4  1  0  0  0  0
  8  7  1  0  0  0  0
 10  7  1  0  0  0  0
 10 13  1  0  0  0  0
 11 10  1  0  0  0  0
 12 10  1  0  0  0  0
 13 14  1  0  0  0  0
 13 44  1  1  0  0  0
 14 15  1  6  0  0  0
 14  3  1  0  0  0  0
 14 16  1  0  0  0  0
 16 17  1  0  0  0  0
 16 18  1  0  0  0  0
 19 16  1  0  0  0  0
 19 21  1  0  0  0  0
 20 19  1  0  0  0  0
 22 23  1  6  0  0  0
 22 13  1  0  0  0  0
 22 19  1  0  0  0  0
 24 25  1  6  0  0  0
 24 26  1  0  0  0  0
 24 39  1  0  0  0  0
 26 27  1  0  0  0  0
 26 29  1  0  0  0  0
 28 26  1  0  0  0  0
 29 30  2  0  0  0  0
 29 32  1  0  0  0  0
 30 31  1  0  0  0  0
 32 33  2  0  0  0  0
 33 35  1  0  0  0  0
 33 34  1  0  0  0  0
 36 32  1  0  0  0  0
 36 37  1  0  0  0  0
 38 36  1  0  0  0  0
 39 40  1  0  0  0  0
 39 36  1  0  0  0  0
 41 39  1  0  0  0  0
 43 42  1  0  0  0  0
 43 24  1  0  0  0  0
 44 46  1  0  0  0  0
 45 44  1  0  0  0  0
 47 44  1  0  0  0  0
 48 49  1  6  0  0  0
 48 22  1  0  0  0  0
 48 54  1  0  0  0  0
 50 51  1  0  0  0  0
 50 48  1  0  0  0  0
 52 50  1  0  0  0  0
 53 50  1  0  0  0  0
 54 57  1  0  0  0  0
 54 55  1  0  0  0  0
 56 54  1  0  0  0  0
 57 60  1  0  0  0  0
 57 59  1  0  0  0  0
 58 57  1  0  0  0  0
 60 62  1  0  0  0  0
 60 61  1  0  0  0  0
 63 69  1  0  0  0  0
 63 60  1  0  0  0  0
 64 63  1  0  0  0  0
 65 68  1  0  0  0  0
 65 66  1  0  0  0  0
 65 63  1  0  0  0  0
 67 65  1  0  0  0  0
 69 72  1  0  0  0  0
 69 70  1  0  0  0  0
 71 69  1  0  0  0  0
M  END
>  <MODEL>
2

>  <REMARK>
 VINA RESULT:      -9.3      2.147      3.637
  Name = CHOLECALCIFEROL
  11 active torsions:
  status: ('A' for Active; 'I' for Inactive)
    1  A    between atoms: O_2  and  C_3
    2  A    between atoms: C_9  and  C_11
    3  A    between atoms: C_23  and  C_24
    4  A    between atoms: C_36  and  C_38
    5  A    between atoms: C_38  and  C_40
    6  A    between atoms: C_38  and  C_44
    7  A    between atoms: C_44  and  C_47
    8  A    between atoms: C_47  and  C_50
    9  A    between atoms: C_50  and  C_53
   10  A    between atoms: C_53  and  C_55
   11  A    between atoms: C_53  and  C_59
                            x       y       z     vdW  Elec       q    Type
                         _______ _______ _______ _____ _____    ______ ____

>  <TORSDO>
F 11

>  <vina_affinity>
-9.3

>  <vina_rmsd_lb>
2.147

>  <vina_rmsd_ub>
3.637

$$$$
CORTICOSTERONE
 OpenBabel09042222203D

 55 58  0  0  1  0  0  0  0  0999 V2000
   92.6430  122.4940  115.6750 C   0  0  1  0  0  0  0  0  0  0  0  0
   91.2140  122.9750  115.3240 C   0  0  0  0  0  0  0  0  0  0  0  0
   90.1480  121.8510  115.4760 C   0  0  1  0  0  0  0  0  0  0  0  0
   90.5560  120.5220  114.7480 C   0  0  1  0  0  0  0  0  0  0  0  0
   92.0360  120.0750  115.0610 C   0  0  1  0  0  0  0  0  0  0  0  0
   92.4530  118.8650  114.1860 C   0  0  0  0  0  0  0  0  0  0  0  0
   91.4650  117.7000  114.3080 C   0  0  0  0  0  0  0  0  0  0  0  0
   90.0850  118.2090  113.9800 C   0  0  0  0  0  0  0  0  0  0  0  0
   89.5730  117.9420  112.7630 C   0  0  0  0  0  0  0  0  0  0  0  0
   88.4440  118.7030  112.2130 C   0  0  0  0  0  0  0  0  0  0  0  0
   87.9540  118.3780  111.0980 O   0  0  0  0  0  0  0  0  0  0  0  0
   87.9370  119.9130  112.9270 C   0  0  0  0  0  0  0  0  0  0  0  0
   88.0810  119.7120  114.4340 C   0  0  0  0  0  0  0  0  0  0  0  0
   89.5310  119.3250  114.8740 C   0  0  2  0  0  0  0  0  0  0  0  0
   92.9620  121.2800  114.7930 C   0  0  2  0  0  0  0  0  0  0  0  0
   94.4720  121.1030  114.9120 C   0  0  0  0  0  0  0  0  0  0  0  0
   95.0090  122.5400  115.0520 C   0  0  0  0  0  0  0  0  0  0  0  0
   93.7690  123.4560  115.2210 C   0  0  2  0  0  0  0  0  0  0  0  0
   91.1890  123.3340  114.2710 H   0  0  0  0  0  0  0  0  0  0  0  0
   90.9380  123.8440  115.9610 H   0  0  0  0  0  0  0  0  0  0  0  0
   89.2270  122.2380  114.9820 H   0  0  0  0  0  0  0  0  0  0  0  0
   90.5590  120.7960  113.6680 H   0  0  0  0  0  0  0  0  0  0  0  0
   92.1420  119.7610  116.1150 H   0  0  0  0  0  0  0  0  0  0  0  0
   93.4580  118.5070  114.4990 H   0  0  0  0  0  0  0  0  0  0  0  0
   92.5190  119.1730  113.1190 H   0  0  0  0  0  0  0  0  0  0  0  0
   91.4910  117.2850  115.3370 H   0  0  0  0  0  0  0  0  0  0  0  0
   91.7780  116.8790  113.6250 H   0  0  0  0  0  0  0  0  0  0  0  0
   90.0400  117.1980  112.1270 H   0  0  0  0  0  0  0  0  0  0  0  0
   86.8650  120.0740  112.6810 H   0  0  0  0  0  0  0  0  0  0  0  0
   88.5050  120.8080  112.5960 H   0  0  0  0  0  0  0  0  0  0  0  0
   87.3800  118.8940  114.7200 H   0  0  0  0  0  0  0  0  0  0  0  0
   87.7190  120.6140  114.9680 H   0  0  0  0  0  0  0  0  0  0  0  0
   92.7900  121.5670  113.7250 H   0  0  0  0  0  0  0  0  0  0  0  0
   94.7240  120.5000  115.8120 H   0  0  0  0  0  0  0  0  0  0  0  0
   94.8910  120.6060  114.0100 H   0  0  0  0  0  0  0  0  0  0  0  0
   95.6950  122.5900  115.9260 H   0  0  0  0  0  0  0  0  0  0  0  0
   95.5800  122.8330  114.1440 H   0  0  0  0  0  0  0  0  0  0  0  0
   93.5250  123.8350  114.2040 H   0  0  0  0  0  0  0  0  0  0  0  0
   92.7680  122.2070  117.2070 C   0  0  0  0  0  0  0  0  0  0  0  0
   92.1530  121.3600  117.5530 H   0  0  0  0  0  0  0  0  0  0  0  0
   93.8140  121.9800  117.4990 H   0  0  0  0  0  0  0  0  0  0  0  0
   92.4410  123.0960  117.7890 H   0  0  0  0  0  0  0  0  0  0  0  0
   89.4120  118.7870  116.3280 C   0  0  0  0  0  0  0  0  0  0  0  0
   88.4400  119.0940  116.7690 H   0  0  0  0  0  0  0  0  0  0  0  0
   89.4700  117.6850  116.3940 H   0  0  0  0  0  0  0  0  0  0  0  0
   90.2030  119.2070  116.9830 H   0  0  0  0  0  0  0  0  0  0  0  0
   89.8710  121.6210  116.8310 O   0  0  0  0  0  0  0  0  0  0  0  0
   89.8470  120.6370  116.9610 H   0  0  0  0  0  0  0  0  0  0  0  0
   94.0020  124.6550  116.1320 C   0  0  0  0  0  0  0  0  0  0  0  0
   95.0140  124.7110  116.8170 O   0  0  0  0  0  0  0  0  0  0  0  0
   93.0130  125.7880  116.2410 C   0  0  0  0  0  0  0  0  0  0  0  0
   93.4800  126.6160  116.8200 H   0  0  0  0  0  0  0  0  0  0  0  0
   92.1180  125.4250  116.7950 H   0  0  0  0  0  0  0  0  0  0  0  0
   92.6210  126.2570  114.9820 O   0  0  0  0  0  0  0  0  0  0  0  0
   93.1710  127.0630  114.8040 H   0  0  0  0  0  0  0  0  0  0  0  0
  1 39  1  1  0  0  0
  2  3  1  0  0  0  0
  2  1  1  0  0  0  0
  2 20  1  0  0  0  0
  3 21  1  6  0  0  0
  3 47  1  0  0  0  0
  4 22  1  6  0  0  0
  4 14  1  0  0  0  0
  4  5  1  0  0  0  0
  4  3  1  0  0  0  0
  5 23  1  1  0  0  0
  6  7  1  0  0  0  0
  6 24  1  0  0  0  0
  6  5  1  0  0  0  0
  7 26  1  0  0  0  0
  8  7  1  0  0  0  0
  8 14  1  0  0  0  0
  9  8  2  0  0  0  0
 10  9  1  0  0  0  0
 10 12  1  0  0  0  0
 11 10  2  0  0  0  0
 12 13  1  0  0  0  0
 13 31  1  0  0  0  0
 13 14  1  0  0  0  0
 13 32  1  0  0  0  0
 14 43  1  1  0  0  0
 15 33  1  6  0  0  0
 15 16  1  0  0  0  0
 15  5  1  0  0  0  0
 15  1  1  0  0  0  0
 16 17  1  0  0  0  0
 16 34  1  0  0  0  0
 17 18  1  0  0  0  0
 17 36  1  0  0  0  0
 18 38  1  6  0  0  0
 18  1  1  0  0  0  0
 18 49  1  0  0  0  0
 19  2  1  0  0  0  0
 25  6  1  0  0  0  0
 27  7  1  0  0  0  0
 28  9  1  0  0  0  0
 29 12  1  0  0  0  0
 30 12  1  0  0  0  0
 35 16  1  0  0  0  0
 37 17  1  0  0  0  0
 39 41  1  0  0  0  0
 39 40  1  0  0  0  0
 39 42  1  0  0  0  0
 43 45  1  0  0  0  0
 43 44  1  0  0  0  0
 43 46  1  0  0  0  0
 47 48  1  0  0  0  0
 49 51  1  0  0  0  0
 49 50  2  0  0  0  0
 51 53  1  0  0  0  0
 51 52  1  0  0  0  0
 54 51  1  0  0  0  0
 55 54  1  0  0  0  0
M  END
>  <MODEL>
1

>  <REMARK>
 VINA RESULT:      -9.2      0.000      0.000
  Name = CORTICOSTERONE
  6 active torsions:
  status: ('A' for Active; 'I' for Inactive)
    1  A    between atoms: C_1  and  C_2
    2  A    between atoms: C_4  and  O_5
    3  A    between atoms: C_16  and  C_17
    4  A    between atoms: C_21  and  C_22
    5  A    between atoms: C_22  and  C_24
    6  A    between atoms: C_24  and  O_25
                            x       y       z     vdW  Elec       q    Type
                         _______ _______ _______ _____ _____    ______ ____

>  <TORSDO>
F 6

>  <vina_affinity>
-9.2

>  <vina_rmsd_lb>
0.000

>  <vina_rmsd_ub>
0.000

$$$$
CORTICOSTERONE
 OpenBabel09042222203D

 55 58  0  0  1  0  0  0  0  0999 V2000
   90.4930  120.7180  115.2660 C   0  0  1  0  0  0  0  0  0  0  0  0
   91.4000  121.1390  114.0840 C   0  0  0  0  0  0  0  0  0  0  0  0
   92.9140  121.0860  114.4420 C   0  0  1  0  0  0  0  0  0  0  0  0
   93.2500  121.8280  115.7830 C   0  0  1  0  0  0  0  0  0  0  0  0
   92.2800  121.4420  116.9640 C   0  0  1  0  0  0  0  0  0  0  0  0
   92.5330  122.3260  118.2110 C   0  0  0  0  0  0  0  0  0  0  0  0
   94.0030  122.3000  118.6460 C   0  0  0  0  0  0  0  0  0  0  0  0
   94.8550  122.6940  117.4670 C   0  0  0  0  0  0  0  0  0  0  0  0
   95.3470  123.9480  117.4200 C   0  0  0  0  0  0  0  0  0  0  0  0
   95.8380  124.5410  116.1690 C   0  0  0  0  0  0  0  0  0  0  0  0
   96.3500  125.6920  116.1810 O   0  0  0  0  0  0  0  0  0  0  0  0
   95.6480  123.8210  114.8730 C   0  0  0  0  0  0  0  0  0  0  0  0
   95.7390  122.3160  115.1100 C   0  0  0  0  0  0  0  0  0  0  0  0
   94.7690  121.8010  116.2240 C   0  0  2  0  0  0  0  0  0  0  0  0
   90.8300  121.6160  116.4630 C   0  0  2  0  0  0  0  0  0  0  0  0
   89.6740  121.4130  117.4360 C   0  0  0  0  0  0  0  0  0  0  0  0
   88.4500  121.1960  116.5260 C   0  0  0  0  0  0  0  0  0  0  0  0
   88.9970  121.0740  115.0790 C   0  0  2  0  0  0  0  0  0  0  0  0
   91.1550  122.1800  113.7780 H   0  0  0  0  0  0  0  0  0  0  0  0
   91.1990  120.4930  113.2010 H   0  0  0  0  0  0  0  0  0  0  0  0
   93.4390  121.6220  113.6180 H   0  0  0  0  0  0  0  0  0  0  0  0
   93.0260  122.8980  115.5630 H   0  0  0  0  0  0  0  0  0  0  0  0
   92.4330  120.3930  117.2770 H   0  0  0  0  0  0  0  0  0  0  0  0
   91.9100  121.9650  119.0590 H   0  0  0  0  0  0  0  0  0  0  0  0
   92.2390  123.3770  117.9970 H   0  0  0  0  0  0  0  0  0  0  0  0
   94.2760  121.2850  119.0000 H   0  0  0  0  0  0  0  0  0  0  0  0
   94.1430  122.9880  119.5080 H   0  0  0  0  0  0  0  0  0  0  0  0
   95.3200  124.5770  118.3020 H   0  0  0  0  0  0  0  0  0  0  0  0
   96.4390  124.1260  114.1540 H   0  0  0  0  0  0  0  0  0  0  0  0
   94.6640  124.0900  114.4370 H   0  0  0  0  0  0  0  0  0  0  0  0
   96.7900  122.0970  115.4090 H   0  0  0  0  0  0  0  0  0  0  0  0
   95.5840  121.7760  114.1530 H   0  0  0  0  0  0  0  0  0  0  0  0
   90.7460  122.6830  116.1360 H   0  0  0  0  0  0  0  0  0  0  0  0
   89.8530  120.5180  118.0720 H   0  0  0  0  0  0  0  0  0  0  0  0
   89.5350  122.3030  118.0870 H   0  0  0  0  0  0  0  0  0  0  0  0
   87.9090  120.2820  116.8520 H   0  0  0  0  0  0  0  0  0  0  0  0
   87.7520  122.0590  116.5990 H   0  0  0  0  0  0  0  0  0  0  0  0
   88.9260  122.0920  114.6360 H   0  0  0  0  0  0  0  0  0  0  0  0
   90.6480  119.1910  115.5630 C   0  0  0  0  0  0  0  0  0  0  0  0
   91.5210  118.9460  116.1920 H   0  0  0  0  0  0  0  0  0  0  0  0
   89.7580  118.7810  116.0840 H   0  0  0  0  0  0  0  0  0  0  0  0
   90.7720  118.6280  114.6130 H   0  0  0  0  0  0  0  0  0  0  0  0
   95.2590  120.3740  116.5990 C   0  0  0  0  0  0  0  0  0  0  0  0
   94.5370  119.8950  117.2940 H   0  0  0  0  0  0  0  0  0  0  0  0
   95.3690  119.7050  115.7250 H   0  0  0  0  0  0  0  0  0  0  0  0
   96.2340  120.4040  117.1270 H   0  0  0  0  0  0  0  0  0  0  0  0
   93.3620  119.7580  114.4730 O   0  0  0  0  0  0  0  0  0  0  0  0
   93.6700  119.5320  113.5560 H   0  0  0  0  0  0  0  0  0  0  0  0
   88.2090  120.1140  114.1960 C   0  0  0  0  0  0  0  0  0  0  0  0
   87.5510  119.2190  114.7080 O   0  0  0  0  0  0  0  0  0  0  0  0
   88.2190  120.2110  112.6910 C   0  0  0  0  0  0  0  0  0  0  0  0
   89.2490  120.0000  112.3270 H   0  0  0  0  0  0  0  0  0  0  0  0
   87.9420  121.2490  112.4010 H   0  0  0  0  0  0  0  0  0  0  0  0
   87.3190  119.3110  112.1080 O   0  0  0  0  0  0  0  0  0  0  0  0
   87.1440  119.6510  111.1920 H   0  0  0  0  0  0  0  0  0  0  0  0
  1 39  1  1  0  0  0
  1 15  1  0  0  0  0
  2  3  1  0  0  0  0
  2  1  1  0  0  0  0
  3 21  1  6  0  0  0
  3 47  1  0  0  0  0
  3  4  1  0  0  0  0
  4 22  1  6  0  0  0
  4 14  1  0  0  0  0
  4  5  1  0  0  0  0
  5 23  1  1  0  0  0
  5  6  1  0  0  0  0
  6  7  1  0  0  0  0
  6 24  1  0  0  0  0
  7 26  1  0  0  0  0
  7 27  1  0  0  0  0
  8  7  1  0  0  0  0
  9  8  2  0  0  0  0
  9 28  1  0  0  0  0
 10 11  2  0  0  0  0
 10  9  1  0  0  0  0
 12 13  1  0  0  0  0
 12 10  1  0  0  0  0
 13 31  1  0  0  0  0
 13 14  1  0  0  0  0
 14 43  1  1  0  0  0
 14  8  1  0  0  0  0
 15 33  1  6  0  0  0
 15  5  1  0  0  0  0
 15 16  1  0  0  0  0
 16 34  1  0  0  0  0
 16 35  1  0  0  0  0
 17 37  1  0  0  0  0
 17 36  1  0  0  0  0
 17 16  1  0  0  0  0
 18 38  1  6  0  0  0
 18  1  1  0  0  0  0
 18 17  1  0  0  0  0
 19  2  1  0  0  0  0
 20  2  1  0  0  0  0
 25  6  1  0  0  0  0
 29 12  1  0  0  0  0
 30 12  1  0  0  0  0
 32 13  1  0  0  0  0
 39 41  1  0  0  0  0
 39 40  1  0  0  0  0
 42 39  1  0  0  0  0
 43 46  1  0  0  0  0
 43 44  1  0  0  0  0
 45 43  1  0  0  0  0
 48 47  1  0  0  0  0
 49 50  2  0  0  0  0
 49 18  1  0  0  0  0
 51 49  1  0  0  0  0
 52 51  1  0  0  0  0
 53 51  1  0  0  0  0
 54 51  1  0  0  0  0
 55 54  1  0  0  0  0
M  END
>  <MODEL>
2

>  <REMARK>
 VINA RESULT:      -9.1      1.922      6.867
  Name = CORTICOSTERONE
  6 active torsions:
  status: ('A' for Active; 'I' for Inactive)
    1  A    between atoms: C_1  and  C_2
    2  A    between atoms: C_4  and  O_5
    3  A    between atoms: C_16  and  C_17
    4  A    between atoms: C_21  and  C_22
    5  A    between atoms: C_22  and  C_24
    6  A    between atoms: C_24  and  O_25
                            x       y       z     vdW  Elec       q    Type
                         _______ _______ _______ _____ _____    ______ ____

>  <TORSDO>
F 6

>  <vina_affinity>
-9.1

>  <vina_rmsd_lb>
1.922

>  <vina_rmsd_ub>
6.867

$$$$
11-DEOXYORTICOSTERONE
 OpenBabel09042222203D

 54 57  0  0  1  0  0  0  0  0999 V2000
   91.6640  118.6770  115.3340 C   0  0  1  0  0  0  0  0  0  0  0  0
   92.4890  119.1640  114.1190 C   0  0  0  0  0  0  0  0  0  0  0  0
   93.6780  120.0740  114.5280 C   0  0  0  0  0  0  0  0  0  0  0  0
   93.3920  121.1410  115.6460 C   0  0  1  0  0  0  0  0  0  0  0  0
   92.4080  120.6460  116.7550 C   0  0  1  0  0  0  0  0  0  0  0  0
   91.9790  121.8430  117.6270 C   0  0  0  0  0  0  0  0  0  0  0  0
   93.2020  122.4070  118.3520 C   0  0  0  0  0  0  0  0  0  0  0  0
   94.3080  122.7690  117.3840 C   0  0  0  0  0  0  0  0  0  0  0  0
   95.0630  123.8520  117.6630 C   0  0  0  0  0  0  0  0  0  0  0  0
   96.1990  124.2460  116.8160 C   0  0  0  0  0  0  0  0  0  0  0  0
   96.7820  125.3420  117.0220 O   0  0  0  0  0  0  0  0  0  0  0  0
   96.6650  123.3590  115.7090 C   0  0  0  0  0  0  0  0  0  0  0  0
   95.4860  122.5510  115.1490 C   0  0  0  0  0  0  0  0  0  0  0  0
   94.7060  121.7800  116.2680 C   0  0  2  0  0  0  0  0  0  0  0  0
   91.2140  119.9370  116.0910 C   0  0  2  0  0  0  0  0  0  0  0  0
   90.0680  119.4770  116.9840 C   0  0  0  0  0  0  0  0  0  0  0  0
   89.3880  118.3410  116.2010 C   0  0  0  0  0  0  0  0  0  0  0  0
   90.2920  118.0380  114.9800 C   0  0  2  0  0  0  0  0  0  0  0  0
   91.8390  119.7050  113.3790 H   0  0  0  0  0  0  0  0  0  0  0  0
   92.8900  118.2730  113.5840 H   0  0  0  0  0  0  0  0  0  0  0  0
   94.0030  120.6140  113.6140 H   0  0  0  0  0  0  0  0  0  0  0  0
   94.5450  119.4350  114.7990 H   0  0  0  0  0  0  0  0  0  0  0  0
   92.8650  121.9710  115.1100 H   0  0  0  0  0  0  0  0  0  0  0  0
   92.8990  119.9350  117.4400 H   0  0  0  0  0  0  0  0  0  0  0  0
   91.2450  121.5210  118.3970 H   0  0  0  0  0  0  0  0  0  0  0  0
   91.5080  122.6400  117.0040 H   0  0  0  0  0  0  0  0  0  0  0  0
   93.5910  121.6500  119.0730 H   0  0  0  0  0  0  0  0  0  0  0  0
   92.8850  123.3000  118.9430 H   0  0  0  0  0  0  0  0  0  0  0  0
   94.8450  124.4710  118.5320 H   0  0  0  0  0  0  0  0  0  0  0  0
   97.1100  123.9870  114.8990 H   0  0  0  0  0  0  0  0  0  0  0  0
   97.4540  122.6910  116.1060 H   0  0  0  0  0  0  0  0  0  0  0  0
   95.8840  121.8430  114.3830 H   0  0  0  0  0  0  0  0  0  0  0  0
   94.8020  123.2650  114.6230 H   0  0  0  0  0  0  0  0  0  0  0  0
   90.7560  120.6540  115.3630 H   0  0  0  0  0  0  0  0  0  0  0  0
   89.3520  120.3010  117.1800 H   0  0  0  0  0  0  0  0  0  0  0  0
   90.4680  119.1280  117.9500 H   0  0  0  0  0  0  0  0  0  0  0  0
   89.2510  117.4640  116.8730 H   0  0  0  0  0  0  0  0  0  0  0  0
   88.3820  118.6730  115.8550 H   0  0  0  0  0  0  0  0  0  0  0  0
   89.8670  118.5800  114.1100 H   0  0  0  0  0  0  0  0  0  0  0  0
   92.5390  117.7100  116.1990 C   0  0  0  0  0  0  0  0  0  0  0  0
   92.1900  116.6630  116.1700 H   0  0  0  0  0  0  0  0  0  0  0  0
   92.5350  118.0210  117.2490 H   0  0  0  0  0  0  0  0  0  0  0  0
   93.6090  117.7580  115.9140 H   0  0  0  0  0  0  0  0  0  0  0  0
   95.6350  120.6850  116.8720 C   0  0  0  0  0  0  0  0  0  0  0  0
   95.4540  120.5340  117.9550 H   0  0  0  0  0  0  0  0  0  0  0  0
   96.7090  120.9360  116.7390 H   0  0  0  0  0  0  0  0  0  0  0  0
   95.4740  119.6920  116.3750 H   0  0  0  0  0  0  0  0  0  0  0  0
   90.3190  116.5620  114.6240 C   0  0  0  0  0  0  0  0  0  0  0  0
   90.2740  115.7150  115.5070 O   0  0  0  0  0  0  0  0  0  0  0  0
   90.4270  116.0970  113.1940 C   0  0  0  0  0  0  0  0  0  0  0  0
   91.4860  116.0790  112.8300 H   0  0  0  0  0  0  0  0  0  0  0  0
   89.9220  116.8240  112.5240 H   0  0  0  0  0  0  0  0  0  0  0  0
   89.8570  114.8280  113.0450 O   0  0  0  0  0  0  0  0  0  0  0  0
   89.4250  114.8210  112.1480 H   0  0  0  0  0  0  0  0  0  0  0  0
  1 15  1  0  0  0  0
  1 40  1  1  0  0  0
  2  3  1  0  0  0  0
  2  1  1  0  0  0  0
  3 22  1  0  0  0  0
  3  4  1  0  0  0  0
  4 23  1  6  0  0  0
  4 14  1  0  0  0  0
  4  5  1  0  0  0  0
  5 24  1  1  0  0  0
  5  6  1  0  0  0  0
  6  7  1  0  0  0  0
  6 25  1  0  0  0  0
  7 28  1  0  0  0  0
  7 27  1  0  0  0  0
  8  9  2  0  0  0  0
  8  7  1  0  0  0  0
  9 29  1  0  0  0  0
 10 11  2  0  0  0  0
 10  9  1  0  0  0  0
 12 31  1  0  0  0  0
 12 10  1  0  0  0  0
 13 12  1  0  0  0  0
 13 14  1  0  0  0  0
 14 44  1  1  0  0  0
 14  8  1  0  0  0  0
 15 34  1  6  0  0  0
 15  5  1  0  0  0  0
 15 16  1  0  0  0  0
 16 35  1  0  0  0  0
 16 36  1  0  0  0  0
 17 37  1  0  0  0  0
 17 16  1  0  0  0  0
 18 39  1  6  0  0  0
 18  1  1  0  0  0  0
 18 17  1  0  0  0  0
 19  2  1  0  0  0  0
 20  2  1  0  0  0  0
 21  3  1  0  0  0  0
 26  6  1  0  0  0  0
 30 12  1  0  0  0  0
 32 13  1  0  0  0  0
 33 13  1  0  0  0  0
 38 17  1  0  0  0  0
 40 42  1  0  0  0  0
 41 40  1  0  0  0  0
 43 40  1  0  0  0  0
 44 45  1  0  0  0  0
 46 44  1  0  0  0  0
 47 44  1  0  0  0  0
 48 18  1  0  0  0  0
 48 49  2  0  0  0  0
 50 48  1  0  0  0  0
 51 50  1  0  0  0  0
 52 50  1  0  0  0  0
 53 50  1  0  0  0  0
 54 53  1  0  0  0  0
M  END
>  <MODEL>
1

>  <REMARK>
 VINA RESULT:      -9.7      0.000      0.000
  Name = 11-DEOXYORTICOSTERONE
  5 active torsions:
  status: ('A' for Active; 'I' for Inactive)
    1  A    between atoms: C_1  and  C_2
    2  A    between atoms: C_15  and  C_16
    3  A    between atoms: C_20  and  C_21
    4  A    between atoms: C_21  and  C_23
    5  A    between atoms: C_23  and  O_24
                            x       y       z     vdW  Elec       q    Type
                         _______ _______ _______ _____ _____    ______ ____

>  <TORSDO>
F 5

>  <vina_affinity>
-9.7

>  <vina_rmsd_lb>
0.000

>  <vina_rmsd_ub>
0.000

$$$$
11-DEOXYORTICOSTERONE
 OpenBabel09042222203D

 54 57  0  0  1  0  0  0  0  0999 V2000
   94.5640  123.3290  116.8670 C   0  0  1  0  0  0  0  0  0  0  0  0
   95.3380  121.9900  116.8280 C   0  0  0  0  0  0  0  0  0  0  0  0
   94.4700  120.8110  116.3150 C   0  0  0  0  0  0  0  0  0  0  0  0
   92.9920  120.7450  116.8450 C   0  0  1  0  0  0  0  0  0  0  0  0
   92.3230  122.1460  117.0310 C   0  0  1  0  0  0  0  0  0  0  0  0
   91.0050  121.9820  117.8130 C   0  0  0  0  0  0  0  0  0  0  0  0
   90.0280  121.1420  116.9890 C   0  0  0  0  0  0  0  0  0  0  0  0
   90.6300  119.8100  116.5960 C   0  0  0  0  0  0  0  0  0  0  0  0
   89.8160  118.7360  116.5520 C   0  0  0  0  0  0  0  0  0  0  0  0
   90.2960  117.4140  116.1200 C   0  0  0  0  0  0  0  0  0  0  0  0
   89.5490  116.4080  116.2370 O   0  0  0  0  0  0  0  0  0  0  0  0
   91.6660  117.2520  115.5500 C   0  0  0  0  0  0  0  0  0  0  0  0
   92.6150  118.2950  116.1550 C   0  0  0  0  0  0  0  0  0  0  0  0
   92.0620  119.7550  116.0210 C   0  0  2  0  0  0  0  0  0  0  0  0
   93.3160  123.0900  117.7320 C   0  0  2  0  0  0  0  0  0  0  0  0
   92.8290  124.4810  118.1210 C   0  0  0  0  0  0  0  0  0  0  0  0
   94.1040  125.3360  118.2120 C   0  0  0  0  0  0  0  0  0  0  0  0
   95.2640  124.4660  117.6640 C   0  0  2  0  0  0  0  0  0  0  0  0
   95.7560  121.7350  117.8410 H   0  0  0  0  0  0  0  0  0  0  0  0
   96.2150  122.1070  116.1530 H   0  0  0  0  0  0  0  0  0  0  0  0
   94.9830  119.8730  116.6140 H   0  0  0  0  0  0  0  0  0  0  0  0
   94.4950  120.8020  115.2040 H   0  0  0  0  0  0  0  0  0  0  0  0
   93.0840  120.3060  117.8720 H   0  0  0  0  0  0  0  0  0  0  0  0
   92.0460  122.5900  116.0610 H   0  0  0  0  0  0  0  0  0  0  0  0
   90.5330  122.9730  117.9930 H   0  0  0  0  0  0  0  0  0  0  0  0
   91.1850  121.4950  118.8000 H   0  0  0  0  0  0  0  0  0  0  0  0
   89.7470  121.6950  116.0630 H   0  0  0  0  0  0  0  0  0  0  0  0
   89.0950  120.9930  117.5860 H   0  0  0  0  0  0  0  0  0  0  0  0
   88.7700  118.8210  116.8410 H   0  0  0  0  0  0  0  0  0  0  0  0
   92.0390  116.2250  115.7780 H   0  0  0  0  0  0  0  0  0  0  0  0
   91.6010  117.3630  114.4500 H   0  0  0  0  0  0  0  0  0  0  0  0
   93.6060  118.1990  115.6470 H   0  0  0  0  0  0  0  0  0  0  0  0
   92.7650  118.0350  117.2340 H   0  0  0  0  0  0  0  0  0  0  0  0
   93.6270  122.6030  118.6910 H   0  0  0  0  0  0  0  0  0  0  0  0
   92.2980  124.4650  119.0950 H   0  0  0  0  0  0  0  0  0  0  0  0
   92.1350  124.8580  117.3530 H   0  0  0  0  0  0  0  0  0  0  0  0
   93.9550  126.2780  117.6390 H   0  0  0  0  0  0  0  0  0  0  0  0
   94.3020  125.6040  119.2750 H   0  0  0  0  0  0  0  0  0  0  0  0
   95.7820  124.0160  118.5360 H   0  0  0  0  0  0  0  0  0  0  0  0
   94.2330  123.7770  115.4050 C   0  0  0  0  0  0  0  0  0  0  0  0
   94.4910  124.8310  115.2030 H   0  0  0  0  0  0  0  0  0  0  0  0
   93.1630  123.6620  115.2000 H   0  0  0  0  0  0  0  0  0  0  0  0
   94.7170  123.1200  114.6540 H   0  0  0  0  0  0  0  0  0  0  0  0
   92.0170  120.1460  114.5140 C   0  0  0  0  0  0  0  0  0  0  0  0
   92.1690  121.2330  114.3600 H   0  0  0  0  0  0  0  0  0  0  0  0
   91.0490  119.8680  114.0460 H   0  0  0  0  0  0  0  0  0  0  0  0
   92.8180  119.6200  113.9310 H   0  0  0  0  0  0  0  0  0  0  0  0
   96.2920  125.2790  116.8980 C   0  0  0  0  0  0  0  0  0  0  0  0
   97.4000  124.8120  116.6670 O   0  0  0  0  0  0  0  0  0  0  0  0
   95.9970  126.6810  116.4240 C   0  0  0  0  0  0  0  0  0  0  0  0
   96.4330  127.4600  117.1000 H   0  0  0  0  0  0  0  0  0  0  0  0
   94.9030  126.8670  116.4650 H   0  0  0  0  0  0  0  0  0  0  0  0
   96.4690  126.8690  115.1210 O   0  0  0  0  0  0  0  0  0  0  0  0
   97.4430  127.0620  115.2030 H   0  0  0  0  0  0  0  0  0  0  0  0
  1 40  1  6  0  0  0
  1 18  1  0  0  0  0
  1 15  1  0  0  0  0
  2  1  1  0  0  0  0
  2 19  1  0  0  0  0
  3 21  1  0  0  0  0
  3  2  1  0  0  0  0
  3  4  1  0  0  0  0
  4  5  1  0  0  0  0
  4 23  1  1  0  0  0
  5 24  1  6  0  0  0
  5 15  1  0  0  0  0
  5  6  1  0  0  0  0
  6 25  1  0  0  0  0
  6 26  1  0  0  0  0
  7 28  1  0  0  0  0
  7  6  1  0  0  0  0
  8  7  1  0  0  0  0
  9  8  2  0  0  0  0
  9 29  1  0  0  0  0
 10 11  2  0  0  0  0
 10  9  1  0  0  0  0
 12 30  1  0  0  0  0
 12 10  1  0  0  0  0
 12 13  1  0  0  0  0
 13 33  1  0  0  0  0
 14 44  1  6  0  0  0
 14 13  1  0  0  0  0
 14  8  1  0  0  0  0
 14  4  1  0  0  0  0
 15 16  1  0  0  0  0
 15 34  1  1  0  0  0
 16 17  1  0  0  0  0
 16 35  1  0  0  0  0
 17 38  1  0  0  0  0
 18 17  1  0  0  0  0
 18 39  1  1  0  0  0
 20  2  1  0  0  0  0
 22  3  1  0  0  0  0
 27  7  1  0  0  0  0
 31 12  1  0  0  0  0
 32 13  1  0  0  0  0
 36 16  1  0  0  0  0
 37 17  1  0  0  0  0
 41 40  1  0  0  0  0
 42 40  1  0  0  0  0
 43 40  1  0  0  0  0
 45 44  1  0  0  0  0
 46 44  1  0  0  0  0
 47 44  1  0  0  0  0
 48 18  1  0  0  0  0
 49 48  2  0  0  0  0
 50 52  1  0  0  0  0
 50 48  1  0  0  0  0
 50 51  1  0  0  0  0
 53 54  1  0  0  0  0
 53 50  1  0  0  0  0
M  END
>  <MODEL>
2

>  <REMARK>
 VINA RESULT:      -9.6      1.474      7.442
  Name = 11-DEOXYORTICOSTERONE
  5 active torsions:
  status: ('A' for Active; 'I' for Inactive)
    1  A    between atoms: C_1  and  C_2
    2  A    between atoms: C_15  and  C_16
    3  A    between atoms: C_20  and  C_21
    4  A    between atoms: C_21  and  C_23
    5  A    between atoms: C_23  and  O_24
                            x       y       z     vdW  Elec       q    Type
                         _______ _______ _______ _____ _____    ______ ____

>  <TORSDO>
F 5

>  <vina_affinity>
-9.6

>  <vina_rmsd_lb>
1.474

>  <vina_rmsd_ub>
7.442

$$$$
17-HYDROXYPREGNENOLONE
 OpenBabel09042222203D

 56 59  0  0  1  0  0  0  0  0999 V2000
   89.5710  118.9030  114.5270 C   0  0  1  0  0  0  0  0  0  0  0  0
   90.7340  118.4490  113.5870 C   0  0  0  0  0  0  0  0  0  0  0  0
   92.0150  119.1370  114.0930 C   0  0  0  0  0  0  0  0  0  0  0  0
   91.5900  119.8410  115.3760 C   0  0  1  0  0  0  0  0  0  0  0  0
   92.4550  121.0100  115.8920 C   0  0  2  0  0  0  0  0  0  0  0  0
   93.9260  120.5690  116.0750 C   0  0  0  0  0  0  0  0  0  0  0  0
   94.7060  121.3530  117.1040 C   0  0  0  0  0  3  0  0  0  0  0  0
   94.1560  122.2360  117.9690 C   0  0  2  0  0  3  0  0  0  0  0  0
   94.9260  122.5430  119.2390 C   0  0  0  0  0  0  0  0  0  0  0  0
   94.5600  123.8960  119.8810 C   0  0  2  0  0  0  0  0  0  0  0  0
   93.0440  124.2100  119.8970 C   0  0  0  0  0  0  0  0  0  0  0  0
   92.1640  123.1660  119.1830 C   0  0  0  0  0  0  0  0  0  0  0  0
   92.7130  122.7190  117.7980 C   0  0  2  0  0  0  0  0  0  0  0  0
   91.8600  121.5180  117.2420 C   0  0  1  0  0  0  0  0  0  0  0  0
   90.3210  121.7890  117.1630 C   0  0  0  0  0  0  0  0  0  0  0  0
   89.5240  120.6320  116.5160 C   0  0  0  0  0  0  0  0  0  0  0  0
   90.1210  120.2270  115.1440 C   0  0  2  0  0  0  0  0  0  0  0  0
   90.8580  117.3440  113.6020 H   0  0  0  0  0  0  0  0  0  0  0  0
   90.5680  118.7510  112.5310 H   0  0  0  0  0  0  0  0  0  0  0  0
   92.8160  118.3940  114.2930 H   0  0  0  0  0  0  0  0  0  0  0  0
   92.3830  119.8750  113.3470 H   0  0  0  0  0  0  0  0  0  0  0  0
   91.6240  119.0570  116.1720 H   0  0  0  0  0  0  0  0  0  0  0  0
   92.4500  121.8120  115.1310 H   0  0  0  0  0  0  0  0  0  0  0  0
   93.9600  119.5070  116.4000 H   0  0  0  0  0  0  0  0  0  0  0  0
   94.4560  120.6320  115.1000 H   0  0  0  0  0  0  0  0  0  0  0  0
   95.7290  121.0240  117.2660 H   0  0  0  0  0  0  0  0  0  0  0  0
   94.7120  121.7310  119.9680 H   0  0  0  0  0  0  0  0  0  0  0  0
   96.0230  122.5290  119.0480 H   0  0  0  0  0  0  0  0  0  0  0  0
   94.8970  123.8390  120.9390 H   0  0  0  0  0  0  0  0  0  0  0  0
   92.6990  124.2790  120.9530 H   0  0  0  0  0  0  0  0  0  0  0  0
   92.8550  125.2130  119.4580 H   0  0  0  0  0  0  0  0  0  0  0  0
   92.0690  122.2770  119.8470 H   0  0  0  0  0  0  0  0  0  0  0  0
   91.1510  123.6070  119.0740 H   0  0  0  0  0  0  0  0  0  0  0  0
   91.9690  120.6820  117.9730 H   0  0  0  0  0  0  0  0  0  0  0  0
   89.9180  121.9200  118.1890 H   0  0  0  0  0  0  0  0  0  0  0  0
   90.1040  122.7270  116.6200 H   0  0  0  0  0  0  0  0  0  0  0  0
   89.5330  119.7700  117.2180 H   0  0  0  0  0  0  0  0  0  0  0  0
   88.4660  120.9470  116.3940 H   0  0  0  0  0  0  0  0  0  0  0  0
   92.7040  123.9280  116.8210 C   0  0  0  0  0  0  0  0  0  0  0  0
   92.1430  123.7070  115.8900 H   0  0  0  0  0  0  0  0  0  0  0  0
   92.2780  124.8360  117.2910 H   0  0  0  0  0  0  0  0  0  0  0  0
   93.7230  124.1980  116.4910 H   0  0  0  0  0  0  0  0  0  0  0  0
   89.9460  121.4080  114.1290 C   0  0  0  0  0  0  0  0  0  0  0  0
   88.9850  121.9320  114.3130 H   0  0  0  0  0  0  0  0  0  0  0  0
   89.9420  121.0530  113.0780 H   0  0  0  0  0  0  0  0  0  0  0  0
   90.7350  122.1780  114.2100 H   0  0  0  0  0  0  0  0  0  0  0  0
   88.2310  119.0830  113.8050 C   0  0  0  0  0  0  0  0  0  0  0  0
   87.1990  119.2400  114.4380 O   0  0  0  0  0  0  0  0  0  0  0  0
   88.1440  119.0210  112.3070 C   0  0  0  0  0  0  0  0  0  0  0  0
   88.0380  120.0480  111.8990 H   0  0  0  0  0  0  0  0  0  0  0  0
   89.0680  118.5600  111.9010 H   0  0  0  0  0  0  0  0  0  0  0  0
   87.2750  118.4160  111.9740 H   0  0  0  0  0  0  0  0  0  0  0  0
   89.4160  117.9370  115.5460 O   0  0  0  0  0  0  0  0  0  0  0  0
   88.9330  117.1590  115.1580 H   0  0  0  0  0  0  0  0  0  0  0  0
   95.2830  124.9520  119.2960 O   0  0  0  0  0  0  0  0  0  0  0  0
   95.9110  125.3080  119.9750 H   0  0  0  0  0  0  0  0  0  0  0  0
  1 47  1  6  0  0  0
  1 17  1  0  0  0  0
  1 53  1  0  0  0  0
  2 18  1  0  0  0  0
  2  3  1  0  0  0  0
  2  1  1  0  0  0  0
  3 20  1  0  0  0  0
  3  4  1  0  0  0  0
  4  5  1  0  0  0  0
  4 22  1  1  0  0  0
  5 23  1  6  0  0  0
  5  6  1  0  0  0  0
  5 14  1  0  0  0  0
  6 24  1  0  0  0  0
  6  7  1  0  0  0  0
  7 26  1  0  0  0  0
  8  7  1  1  0  0  0
  8  9  1  0  0  0  0
  9 10  1  0  0  0  0
  9 27  1  0  0  0  0
 10 11  1  0  0  0  0
 10 29  1  1  0  0  0
 11 30  1  0  0  0  0
 12 32  1  0  0  0  0
 12 11  1  0  0  0  0
 13 39  1  6  0  0  0
 13  8  1  0  0  0  0
 13 12  1  0  0  0  0
 14 13  1  0  0  0  0
 14 34  1  1  0  0  0
 15 14  1  0  0  0  0
 15 35  1  0  0  0  0
 16 15  1  0  0  0  0
 16 37  1  0  0  0  0
 17 43  1  6  0  0  0
 17  4  1  0  0  0  0
 17 16  1  0  0  0  0
 19  2  1  0  0  0  0
 21  3  1  0  0  0  0
 25  6  1  0  0  0  0
 28  9  1  0  0  0  0
 31 11  1  0  0  0  0
 33 12  1  0  0  0  0
 36 15  1  0  0  0  0
 38 16  1  0  0  0  0
 39 41  1  0  0  0  0
 40 39  1  0  0  0  0
 42 39  1  0  0  0  0
 43 46  1  0  0  0  0
 43 44  1  0  0  0  0
 45 43  1  0  0  0  0
 47 48  2  0  0  0  0
 49 47  1  0  0  0  0
 50 49  1  0  0  0  0
 51 49  1  0  0  0  0
 52 49  1  0  0  0  0
 54 53  1  0  0  0  0
 55 10  1  0  0  0  0
 55 56  1  0  0  0  0
M  END
>  <MODEL>
1

>  <REMARK>
 VINA RESULT:      -9.2      0.000      0.000
  Name = 17-HYDROXYPREGNENOLONE
  6 active torsions:
  status: ('A' for Active; 'I' for Inactive)
    1  A    between atoms: C_1  and  C_2
    2  A    between atoms: C_2  and  C_4
    3  A    between atoms: C_4  and  O_5
    4  A    between atoms: C_14  and  O_15
    5  A    between atoms: C_18  and  C_19
    6  A    between atoms: C_23  and  C_24
                            x       y       z     vdW  Elec       q    Type
                         _______ _______ _______ _____ _____    ______ ____

>  <TORSDO>
F 6

>  <vina_affinity>
-9.2

>  <vina_rmsd_lb>
0.000

>  <vina_rmsd_ub>
0.000

$$$$
17-HYDROXYPREGNENOLONE
 OpenBabel09042222203D

 56 59  0  0  1  0  0  0  0  0999 V2000
   94.4510  124.0080  118.3110 C   0  0  1  0  0  0  0  0  0  0  0  0
   94.6210  122.9550  119.4520 C   0  0  0  0  0  0  0  0  0  0  0  0
   93.6590  121.7940  119.1390 C   0  0  0  0  0  0  0  0  0  0  0  0
   93.0780  122.1360  117.7740 C   0  0  1  0  0  0  0  0  0  0  0  0
   91.7440  121.4810  117.3600 C   0  0  2  0  0  0  0  0  0  0  0  0
   91.8360  119.9390  117.4460 C   0  0  0  0  0  0  0  0  0  0  0  0
   90.8990  119.1900  116.5290 C   0  0  0  0  0  3  0  0  0  0  0  0
   90.1700  119.7650  115.5460 C   0  0  2  0  0  3  0  0  0  0  0  0
   89.6990  118.8750  114.4110 C   0  0  0  0  0  0  0  0  0  0  0  0
   88.4700  119.4200  113.6570 C   0  0  2  0  0  0  0  0  0  0  0  0
   88.5120  120.9400  113.3720 C   0  0  0  0  0  0  0  0  0  0  0  0
   89.7270  121.6730  113.9740 C   0  0  0  0  0  0  0  0  0  0  0  0
   90.0300  121.2870  115.4500 C   0  0  2  0  0  0  0  0  0  0  0  0
   91.3920  121.9310  115.9070 C   0  0  1  0  0  0  0  0  0  0  0  0
   91.4810  123.4810  115.7140 C   0  0  0  0  0  0  0  0  0  0  0  0
   92.7870  124.0970  116.2680 C   0  0  0  0  0  0  0  0  0  0  0  0
   93.0380  123.6720  117.7370 C   0  0  2  0  0  0  0  0  0  0  0  0
   95.6680  122.5840  119.5070 H   0  0  0  0  0  0  0  0  0  0  0  0
   94.3610  123.3660  120.4510 H   0  0  0  0  0  0  0  0  0  0  0  0
   94.2000  120.8230  119.1110 H   0  0  0  0  0  0  0  0  0  0  0  0
   92.8530  121.7370  119.9030 H   0  0  0  0  0  0  0  0  0  0  0  0
   93.8360  121.7890  117.0300 H   0  0  0  0  0  0  0  0  0  0  0  0
   90.9610  121.7990  118.0730 H   0  0  0  0  0  0  0  0  0  0  0  0
   92.8640  119.6110  117.1790 H   0  0  0  0  0  0  0  0  0  0  0  0
   91.6480  119.6150  118.4920 H   0  0  0  0  0  0  0  0  0  0  0  0
   90.9840  118.1060  116.5570 H   0  0  0  0  0  0  0  0  0  0  0  0
   90.5420  118.7700  113.6930 H   0  0  0  0  0  0  0  0  0  0  0  0
   89.4600  117.8530  114.7850 H   0  0  0  0  0  0  0  0  0  0  0  0
   88.4520  118.8990  112.6750 H   0  0  0  0  0  0  0  0  0  0  0  0
   88.5290  121.1030  112.2720 H   0  0  0  0  0  0  0  0  0  0  0  0
   87.5770  121.4240  113.7280 H   0  0  0  0  0  0  0  0  0  0  0  0
   90.6170  121.4480  113.3430 H   0  0  0  0  0  0  0  0  0  0  0  0
   89.5300  122.7630  113.8910 H   0  0  0  0  0  0  0  0  0  0  0  0
   92.1840  121.5100  115.2420 H   0  0  0  0  0  0  0  0  0  0  0  0
   91.4510  123.7180  114.6300 H   0  0  0  0  0  0  0  0  0  0  0  0
   90.6160  123.9950  116.1710 H   0  0  0  0  0  0  0  0  0  0  0  0
   93.6280  123.7710  115.6170 H   0  0  0  0  0  0  0  0  0  0  0  0
   92.7240  125.2030  116.1970 H   0  0  0  0  0  0  0  0  0  0  0  0
   88.8500  121.7380  116.3570 C   0  0  0  0  0  0  0  0  0  0  0  0
   89.0470  122.7180  116.8380 H   0  0  0  0  0  0  0  0  0  0  0  0
   87.8980  121.7960  115.7970 H   0  0  0  0  0  0  0  0  0  0  0  0
   88.6790  121.0330  117.1900 H   0  0  0  0  0  0  0  0  0  0  0  0
   91.9250  124.2820  118.6550 C   0  0  0  0  0  0  0  0  0  0  0  0
   92.3260  124.4680  119.6730 H   0  0  0  0  0  0  0  0  0  0  0  0
   91.0530  123.6040  118.7550 H   0  0  0  0  0  0  0  0  0  0  0  0
   91.5420  125.2550  118.2950 H   0  0  0  0  0  0  0  0  0  0  0  0
   94.5800  125.4580  118.7880 C   0  0  0  0  0  0  0  0  0  0  0  0
   94.5400  125.7280  119.9790 O   0  0  0  0  0  0  0  0  0  0  0  0
   94.7080  126.5890  117.8090 C   0  0  0  0  0  0  0  0  0  0  0  0
   95.1600  127.4690  118.3140 H   0  0  0  0  0  0  0  0  0  0  0  0
   95.3590  126.2780  116.9660 H   0  0  0  0  0  0  0  0  0  0  0  0
   93.7210  126.8860  117.3970 H   0  0  0  0  0  0  0  0  0  0  0  0
   95.4310  123.7620  117.3250 O   0  0  0  0  0  0  0  0  0  0  0  0
   96.0010  123.0120  117.6410 H   0  0  0  0  0  0  0  0  0  0  0  0
   87.2730  119.0660  114.3080 O   0  0  0  0  0  0  0  0  0  0  0  0
   86.7550  119.8950  114.4710 H   0  0  0  0  0  0  0  0  0  0  0  0
  1 53  1  6  0  0  0
  1 47  1  0  0  0  0
  1  2  1  0  0  0  0
  2 18  1  0  0  0  0
  2 19  1  0  0  0  0
  3  2  1  0  0  0  0
  3 21  1  0  0  0  0
  4 22  1  6  0  0  0
  4  3  1  0  0  0  0
  5  6  1  0  0  0  0
  5  4  1  0  0  0  0
  5 23  1  1  0  0  0
  6 25  1  0  0  0  0
  7 26  1  0  0  0  0
  7  6  1  0  0  0  0
  8  7  1  6  0  0  0
  9 28  1  0  0  0  0
  9  8  1  0  0  0  0
 10 29  1  6  0  0  0
 10 55  1  0  0  0  0
 10  9  1  0  0  0  0
 11 10  1  0  0  0  0
 11 31  1  0  0  0  0
 11 12  1  0  0  0  0
 12 13  1  0  0  0  0
 13  8  1  0  0  0  0
 13 14  1  0  0  0  0
 13 39  1  1  0  0  0
 14 34  1  6  0  0  0
 14  5  1  0  0  0  0
 15 14  1  0  0  0  0
 15 36  1  0  0  0  0
 15 16  1  0  0  0  0
 16 17  1  0  0  0  0
 17  4  1  0  0  0  0
 17  1  1  0  0  0  0
 17 43  1  1  0  0  0
 20  3  1  0  0  0  0
 24  6  1  0  0  0  0
 27  9  1  0  0  0  0
 30 11  1  0  0  0  0
 32 12  1  0  0  0  0
 33 12  1  0  0  0  0
 35 15  1  0  0  0  0
 37 16  1  0  0  0  0
 38 16  1  0  0  0  0
 39 40  1  0  0  0  0
 39 42  1  0  0  0  0
 41 39  1  0  0  0  0
 43 45  1  0  0  0  0
 43 44  1  0  0  0  0
 46 43  1  0  0  0  0
 47 48  2  0  0  0  0
 49 50  1  0  0  0  0
 49 47  1  0  0  0  0
 51 49  1  0  0  0  0
 52 49  1  0  0  0  0
 53 54  1  0  0  0  0
 55 56  1  0  0  0  0
M  END
>  <MODEL>
2

>  <REMARK>
 VINA RESULT:      -9.0      1.391      7.054
  Name = 17-HYDROXYPREGNENOLONE
  6 active torsions:
  status: ('A' for Active; 'I' for Inactive)
    1  A    between atoms: C_1  and  C_2
    2  A    between atoms: C_2  and  C_4
    3  A    between atoms: C_4  and  O_5
    4  A    between atoms: C_14  and  O_15
    5  A    between atoms: C_18  and  C_19
    6  A    between atoms: C_23  and  C_24
                            x       y       z     vdW  Elec       q    Type
                         _______ _______ _______ _____ _____    ______ ____

>  <TORSDO>
F 6

>  <vina_affinity>
-9.0

>  <vina_rmsd_lb>
1.391

>  <vina_rmsd_ub>
7.054

$$$$
5alpha,17alpha-Pregnan-12-one
 OpenBabel09042222203D

 56 59  0  0  1  0  0  0  0  0999 V2000
   88.7020  119.1590  111.9690 C   0  0  2  0  0  0  0  0  0  0  0  0
   87.9950  120.5370  111.8200 C   0  0  0  0  0  0  0  0  0  0  0  0
   88.7030  121.5180  112.7740 C   0  0  0  0  0  0  0  0  0  0  0  0
   89.8950  120.7340  113.3100 C   0  0  1  0  0  0  0  0  0  0  0  0
   90.5640  121.1890  114.6260 C   0  0  2  0  0  0  0  0  0  0  0  0
   90.9370  122.6820  114.5560 C   0  0  0  0  0  0  0  0  0  0  0  0
   91.7040  123.1250  115.8030 C   0  0  0  0  0  0  0  0  0  0  0  0
   92.9780  122.2810  115.9910 C   0  0  1  0  0  0  0  0  0  0  0  0
   93.8300  122.8260  117.1640 C   0  0  0  0  0  0  0  0  0  0  0  0
   94.9300  121.8500  117.6270 C   0  0  0  0  0  0  0  0  0  0  0  0
   95.2740  120.8100  116.5600 C   0  0  0  0  0  0  0  0  0  0  0  0
   94.0490  119.9710  116.1380 C   0  0  0  0  0  0  0  0  0  0  0  0
   92.6790  120.7470  116.1100 C   0  0  2  0  0  0  0  0  0  0  0  0
   91.8450  120.3100  114.8420 C   0  0  1  0  0  0  0  0  0  0  0  0
   91.5270  118.7800  114.7920 C   0  0  0  0  0  0  0  0  0  0  0  0
   90.6060  118.3930  113.6510 C   0  0  0  0  0  0  0  0  0  0  0  0
   90.6880  117.2710  113.1740 O   0  0  0  0  0  0  0  0  0  0  0  0
   89.4140  119.2800  113.3500 C   0  0  2  0  0  0  0  0  0  0  0  0
   87.9440  118.3420  112.0010 H   0  0  0  0  0  0  0  0  0  0  0  0
   88.0310  120.9300  110.7820 H   0  0  0  0  0  0  0  0  0  0  0  0
   86.9250  120.4450  112.1080 H   0  0  0  0  0  0  0  0  0  0  0  0
   88.0250  121.8210  113.6010 H   0  0  0  0  0  0  0  0  0  0  0  0
   89.0390  122.4290  112.2310 H   0  0  0  0  0  0  0  0  0  0  0  0
   90.6830  120.8190  112.5230 H   0  0  0  0  0  0  0  0  0  0  0  0
   89.8490  121.0620  115.4620 H   0  0  0  0  0  0  0  0  0  0  0  0
   90.0150  123.2970  114.4770 H   0  0  0  0  0  0  0  0  0  0  0  0
   91.5580  122.8810  113.6540 H   0  0  0  0  0  0  0  0  0  0  0  0
   91.9850  124.1940  115.6800 H   0  0  0  0  0  0  0  0  0  0  0  0
   91.0470  123.0580  116.6960 H   0  0  0  0  0  0  0  0  0  0  0  0
   93.5860  122.4310  115.0680 H   0  0  0  0  0  0  0  0  0  0  0  0
   94.3060  123.7780  116.8400 H   0  0  0  0  0  0  0  0  0  0  0  0
   93.1820  123.0730  118.0330 H   0  0  0  0  0  0  0  0  0  0  0  0
   95.8470  122.4250  117.8820 H   0  0  0  0  0  0  0  0  0  0  0  0
   94.6150  121.3260  118.5550 H   0  0  0  0  0  0  0  0  0  0  0  0
   96.0680  120.1350  116.9460 H   0  0  0  0  0  0  0  0  0  0  0  0
   95.6910  121.3340  115.6720 H   0  0  0  0  0  0  0  0  0  0  0  0
   94.2930  119.5660  115.1320 H   0  0  0  0  0  0  0  0  0  0  0  0
   93.9810  119.0830  116.8060 H   0  0  0  0  0  0  0  0  0  0  0  0
   92.5010  120.5000  113.9600 H   0  0  0  0  0  0  0  0  0  0  0  0
   91.0340  118.4520  115.7280 H   0  0  0  0  0  0  0  0  0  0  0  0
   92.4690  118.2020  114.6980 H   0  0  0  0  0  0  0  0  0  0  0  0
   91.8930  120.4370  117.4230 C   0  0  0  0  0  0  0  0  0  0  0  0
   91.0470  121.1310  117.5740 H   0  0  0  0  0  0  0  0  0  0  0  0
   92.5370  120.5470  118.3180 H   0  0  0  0  0  0  0  0  0  0  0  0
   91.4760  119.4120  117.4340 H   0  0  0  0  0  0  0  0  0  0  0  0
   88.3600  119.0030  114.4680 C   0  0  0  0  0  0  0  0  0  0  0  0
   88.4940  118.0100  114.9410 H   0  0  0  0  0  0  0  0  0  0  0  0
   88.3860  119.7650  115.2730 H   0  0  0  0  0  0  0  0  0  0  0  0
   87.3390  119.0150  114.0310 H   0  0  0  0  0  0  0  0  0  0  0  0
   89.6440  118.8980  110.7570 C   0  0  0  0  0  0  0  0  0  0  0  0
   89.6450  117.8300  110.4670 H   0  0  0  0  0  0  0  0  0  0  0  0
   90.6920  119.1710  111.0030 H   0  0  0  0  0  0  0  0  0  0  0  0
   89.2100  119.6820  109.5170 C   0  0  0  0  0  0  0  0  0  0  0  0
   88.4760  119.0940  108.9270 H   0  0  0  0  0  0  0  0  0  0  0  0
   88.7550  120.6550  109.7960 H   0  0  0  0  0  0  0  0  0  0  0  0
   90.0960  119.8830  108.8780 H   0  0  0  0  0  0  0  0  0  0  0  0
  1 19  1  1  0  0  0
  1 18  1  0  0  0  0
  2  1  1  0  0  0  0
  2 21  1  0  0  0  0
  2  3  1  0  0  0  0
  3  4  1  0  0  0  0
  3 22  1  0  0  0  0
  4 24  1  6  0  0  0
  4 18  1  0  0  0  0
  4  5  1  0  0  0  0
  5 14  1  0  0  0  0
  5 25  1  1  0  0  0
  6  5  1  0  0  0  0
  6  7  1  0  0  0  0
  7  8  1  0  0  0  0
  7 29  1  0  0  0  0
  8 30  1  6  0  0  0
  8 13  1  0  0  0  0
  8  9  1  0  0  0  0
  9 10  1  0  0  0  0
  9 32  1  0  0  0  0
 10 33  1  0  0  0  0
 10 34  1  0  0  0  0
 11 35  1  0  0  0  0
 11 10  1  0  0  0  0
 12 11  1  0  0  0  0
 12 38  1  0  0  0  0
 13 12  1  0  0  0  0
 13 42  1  1  0  0  0
 14 39  1  6  0  0  0
 14 13  1  0  0  0  0
 15 14  1  0  0  0  0
 15 40  1  0  0  0  0
 16 15  1  0  0  0  0
 17 16  2  0  0  0  0
 18 16  1  0  0  0  0
 18 46  1  1  0  0  0
 20  2  1  0  0  0  0
 23  3  1  0  0  0  0
 26  6  1  0  0  0  0
 27  6  1  0  0  0  0
 28  7  1  0  0  0  0
 31  9  1  0  0  0  0
 36 11  1  0  0  0  0
 37 12  1  0  0  0  0
 41 15  1  0  0  0  0
 42 45  1  0  0  0  0
 42 43  1  0  0  0  0
 42 44  1  0  0  0  0
 46 47  1  0  0  0  0
 46 48  1  0  0  0  0
 49 46  1  0  0  0  0
 50 52  1  0  0  0  0
 50  1  1  0  0  0  0
 51 50  1  0  0  0  0
 53 55  1  0  0  0  0
 53 50  1  0  0  0  0
 54 53  1  0  0  0  0
 56 53  1  0  0  0  0
M  END
>  <MODEL>
1

>  <REMARK>
 VINA RESULT:      -9.3      0.000      0.000
  Name = 5alpha,17alpha-Pregnan-12-one
  4 active torsions:
  status: ('A' for Active; 'I' for Inactive)
    1  A    between atoms: C_1  and  C_2
    2  A    between atoms: C_2  and  C_3
    3  A    between atoms: C_15  and  C_16
    4  A    between atoms: C_21  and  C_22
                            x       y       z     vdW  Elec       q    Type
                         _______ _______ _______ _____ _____    ______ ____

>  <TORSDO>
F 4

>  <vina_affinity>
-9.3

>  <vina_rmsd_lb>
0.000

>  <vina_rmsd_ub>
0.000

$$$$
5alpha,17alpha-Pregnan-12-one
 OpenBabel09042222203D

 56 59  0  0  1  0  0  0  0  0999 V2000
   94.6180  122.6770  116.6900 C   0  0  2  0  0  0  0  0  0  0  0  0
   95.4540  121.3670  116.7680 C   0  0  0  0  0  0  0  0  0  0  0  0
   94.6170  120.2510  116.1140 C   0  0  0  0  0  0  0  0  0  0  0  0
   93.4100  120.9750  115.5290 C   0  0  1  0  0  0  0  0  0  0  0  0
   92.1290  120.1700  115.2170 C   0  0  2  0  0  0  0  0  0  0  0  0
   92.4570  118.9500  114.3350 C   0  0  0  0  0  0  0  0  0  0  0  0
   91.1880  118.2040  113.9200 C   0  0  0  0  0  0  0  0  0  0  0  0
   90.2240  119.1400  113.1690 C   0  0  1  0  0  0  0  0  0  0  0  0
   89.0100  118.3520  112.6180 C   0  0  0  0  0  0  0  0  0  0  0  0
   87.8500  119.2570  112.1570 C   0  0  0  0  0  0  0  0  0  0  0  0
   88.3040  120.6890  111.8740 C   0  0  0  0  0  0  0  0  0  0  0  0
   88.9580  121.3540  113.1050 C   0  0  0  0  0  0  0  0  0  0  0  0
   89.8090  120.3930  114.0170 C   0  0  2  0  0  0  0  0  0  0  0  0
   91.1270  121.1280  114.4820 C   0  0  1  0  0  0  0  0  0  0  0  0
   90.8660  122.4410  115.2890 C   0  0  0  0  0  0  0  0  0  0  0  0
   92.1290  123.0620  115.8550 C   0  0  0  0  0  0  0  0  0  0  0  0
   92.1730  124.2710  116.0250 O   0  0  0  0  0  0  0  0  0  0  0  0
   93.1660  122.1500  116.4810 C   0  0  2  0  0  0  0  0  0  0  0  0
   94.6870  123.2320  117.6540 H   0  0  0  0  0  0  0  0  0  0  0  0
   96.4350  121.4510  116.2530 H   0  0  0  0  0  0  0  0  0  0  0  0
   95.6540  121.1090  117.8310 H   0  0  0  0  0  0  0  0  0  0  0  0
   94.2990  119.5030  116.8720 H   0  0  0  0  0  0  0  0  0  0  0  0
   95.1950  119.7340  115.3170 H   0  0  0  0  0  0  0  0  0  0  0  0
   93.7570  121.3860  114.5500 H   0  0  0  0  0  0  0  0  0  0  0  0
   91.6960  119.7920  116.1630 H   0  0  0  0  0  0  0  0  0  0  0  0
   93.1070  118.2440  114.8960 H   0  0  0  0  0  0  0  0  0  0  0  0
   93.0090  119.2710  113.4240 H   0  0  0  0  0  0  0  0  0  0  0  0
   91.4790  117.3640  113.2520 H   0  0  0  0  0  0  0  0  0  0  0  0
   90.6990  117.7610  114.8130 H   0  0  0  0  0  0  0  0  0  0  0  0
   90.7840  119.5120  112.2790 H   0  0  0  0  0  0  0  0  0  0  0  0
   89.3520  117.7380  111.7560 H   0  0  0  0  0  0  0  0  0  0  0  0
   88.6270  117.6420  113.3830 H   0  0  0  0  0  0  0  0  0  0  0  0
   87.3960  118.8320  111.2350 H   0  0  0  0  0  0  0  0  0  0  0  0
   87.0470  119.2770  112.9250 H   0  0  0  0  0  0  0  0  0  0  0  0
   87.4310  121.2950  111.5490 H   0  0  0  0  0  0  0  0  0  0  0  0
   89.0280  120.6750  111.0300 H   0  0  0  0  0  0  0  0  0  0  0  0
   89.5890  122.1760  112.7040 H   0  0  0  0  0  0  0  0  0  0  0  0
   88.1630  121.8550  113.7010 H   0  0  0  0  0  0  0  0  0  0  0  0
   91.6430  121.4560  113.5500 H   0  0  0  0  0  0  0  0  0  0  0  0
   90.1920  122.2470  116.1450 H   0  0  0  0  0  0  0  0  0  0  0  0
   90.3640  123.1880  114.6400 H   0  0  0  0  0  0  0  0  0  0  0  0
   88.9490  119.9670  115.2470 C   0  0  0  0  0  0  0  0  0  0  0  0
   88.4990  118.9670  115.1130 H   0  0  0  0  0  0  0  0  0  0  0  0
   88.0990  120.6600  115.4100 H   0  0  0  0  0  0  0  0  0  0  0  0
   89.5370  119.9330  116.1830 H   0  0  0  0  0  0  0  0  0  0  0  0
   92.5980  121.7200  117.8700 C   0  0  0  0  0  0  0  0  0  0  0  0
   92.1010  120.7300  117.8380 H   0  0  0  0  0  0  0  0  0  0  0  0
   93.3810  121.6770  118.6530 H   0  0  0  0  0  0  0  0  0  0  0  0
   91.8320  122.4520  118.2050 H   0  0  0  0  0  0  0  0  0  0  0  0
   95.1580  123.6010  115.5590 C   0  0  0  0  0  0  0  0  0  0  0  0
   95.3060  124.6360  115.9190 H   0  0  0  0  0  0  0  0  0  0  0  0
   94.4440  123.6480  114.7100 H   0  0  0  0  0  0  0  0  0  0  0  0
   96.5150  123.1270  115.0350 C   0  0  0  0  0  0  0  0  0  0  0  0
   97.3380  123.6200  115.5940 H   0  0  0  0  0  0  0  0  0  0  0  0
   96.6210  122.0270  115.1300 H   0  0  0  0  0  0  0  0  0  0  0  0
   96.6110  123.3940  113.9610 H   0  0  0  0  0  0  0  0  0  0  0  0
  1  2  1  0  0  0  0
  1 19  1  1  0  0  0
  2 21  1  0  0  0  0
  3  2  1  0  0  0  0
  3 22  1  0  0  0  0
  4 24  1  6  0  0  0
  4  3  1  0  0  0  0
  4 18  1  0  0  0  0
  5  4  1  0  0  0  0
  5 25  1  1  0  0  0
  6 26  1  0  0  0  0
  6  5  1  0  0  0  0
  7  6  1  0  0  0  0
  7 29  1  0  0  0  0
  8 30  1  6  0  0  0
  8  7  1  0  0  0  0
  8 13  1  0  0  0  0
  9  8  1  0  0  0  0
  9 32  1  0  0  0  0
 10  9  1  0  0  0  0
 10 34  1  0  0  0  0
 11 10  1  0  0  0  0
 11 12  1  0  0  0  0
 12 38  1  0  0  0  0
 12 13  1  0  0  0  0
 13 14  1  0  0  0  0
 13 42  1  1  0  0  0
 14 39  1  6  0  0  0
 14  5  1  0  0  0  0
 14 15  1  0  0  0  0
 15 16  1  0  0  0  0
 15 40  1  0  0  0  0
 16 17  2  0  0  0  0
 16 18  1  0  0  0  0
 18  1  1  0  0  0  0
 18 46  1  1  0  0  0
 20  2  1  0  0  0  0
 23  3  1  0  0  0  0
 27  6  1  0  0  0  0
 28  7  1  0  0  0  0
 31  9  1  0  0  0  0
 33 10  1  0  0  0  0
 35 11  1  0  0  0  0
 36 11  1  0  0  0  0
 37 12  1  0  0  0  0
 41 15  1  0  0  0  0
 42 44  1  0  0  0  0
 42 45  1  0  0  0  0
 43 42  1  0  0  0  0
 46 49  1  0  0  0  0
 46 48  1  0  0  0  0
 47 46  1  0  0  0  0
 50 51  1  0  0  0  0
 50  1  1  0  0  0  0
 52 50  1  0  0  0  0
 53 55  1  0  0  0  0
 53 50  1  0  0  0  0
 53 54  1  0  0  0  0
 56 53  1  0  0  0  0
M  END
>  <MODEL>
2

>  <REMARK>
 VINA RESULT:      -9.2      1.990      6.459
  Name = 5alpha,17alpha-Pregnan-12-one
  4 active torsions:
  status: ('A' for Active; 'I' for Inactive)
    1  A    between atoms: C_1  and  C_2
    2  A    between atoms: C_2  and  C_3
    3  A    between atoms: C_15  and  C_16
    4  A    between atoms: C_21  and  C_22
                            x       y       z     vdW  Elec       q    Type
                         _______ _______ _______ _____ _____    ______ ____

>  <TORSDO>
F 4

>  <vina_affinity>
-9.2

>  <vina_rmsd_lb>
1.990

>  <vina_rmsd_ub>
6.459

$$$$
ESTRADIOL
 OpenBabel09042222203D

 44 47  0  0  1  0  0  0  0  0999 V2000
   88.9310  118.8510  111.7000 C   0  0  1  0  0  0  0  0  0  0  0  0
   88.0150  119.9360  112.3070 C   0  0  0  0  0  0  0  0  0  0  0  0
   88.7210  120.7000  113.4570 C   0  0  0  0  0  0  0  0  0  0  0  0
   89.3330  119.7560  114.5400 C   0  0  2  0  0  0  0  0  0  0  0  0
   90.1130  120.4820  115.6380 C   0  0  0  0  0  0  0  0  0  0  0  0
   89.7250  121.7650  116.0810 C   0  0  0  0  0  0  0  0  0  0  0  0
   90.3870  122.3900  117.1400 C   0  0  0  0  0  0  0  0  0  0  0  0
   91.4330  121.7400  117.7980 C   0  0  0  0  0  0  0  0  0  0  0  0
   91.8080  120.4560  117.4010 C   0  0  0  0  0  0  0  0  0  0  0  0
   91.1470  119.8080  116.3450 C   0  0  0  0  0  0  0  0  0  0  0  0
   91.6370  118.4320  115.9490 C   0  0  0  0  0  0  0  0  0  0  0  0
   90.6870  117.6900  115.0050 C   0  0  0  0  0  0  0  0  0  0  0  0
   90.2080  118.6390  113.8980 C   0  0  1  0  0  0  0  0  0  0  0  0
   89.3640  117.9120  112.8350 C   0  0  2  0  0  0  0  0  0  0  0  0
   89.9370  116.6920  112.1260 C   0  0  0  0  0  0  0  0  0  0  0  0
   89.0870  116.5720  110.8480 C   0  0  0  0  0  0  0  0  0  0  0  0
   88.2200  117.8500  110.7710 C   0  0  2  0  0  0  0  0  0  0  0  0
   87.7050  120.6570  111.5190 H   0  0  0  0  0  0  0  0  0  0  0  0
   87.0880  119.4700  112.7100 H   0  0  0  0  0  0  0  0  0  0  0  0
   87.9470  121.3450  113.9180 H   0  0  0  0  0  0  0  0  0  0  0  0
   89.5080  121.3690  113.0510 H   0  0  0  0  0  0  0  0  0  0  0  0
   88.4700  119.2680  115.0510 H   0  0  0  0  0  0  0  0  0  0  0  0
   88.9060  122.2980  115.6260 H   0  0  0  0  0  0  0  0  0  0  0  0
   90.0790  123.3790  117.4530 H   0  0  0  0  0  0  0  0  0  0  0  0
   92.6200  119.9610  117.9200 H   0  0  0  0  0  0  0  0  0  0  0  0
   92.6240  118.5440  115.4500 H   0  0  0  0  0  0  0  0  0  0  0  0
   91.7870  117.8100  116.8590 H   0  0  0  0  0  0  0  0  0  0  0  0
   89.8190  117.2940  115.5770 H   0  0  0  0  0  0  0  0  0  0  0  0
   91.2320  116.8270  114.5670 H   0  0  0  0  0  0  0  0  0  0  0  0
   91.1120  119.0800  113.4270 H   0  0  0  0  0  0  0  0  0  0  0  0
   88.4470  117.5420  113.3610 H   0  0  0  0  0  0  0  0  0  0  0  0
   91.0080  116.8510  111.8730 H   0  0  0  0  0  0  0  0  0  0  0  0
   89.8420  115.7800  112.7550 H   0  0  0  0  0  0  0  0  0  0  0  0
   88.4370  115.6720  110.8920 H   0  0  0  0  0  0  0  0  0  0  0  0
   89.7520  116.4880  109.9600 H   0  0  0  0  0  0  0  0  0  0  0  0
   87.2010  117.6230  111.1710 H   0  0  0  0  0  0  0  0  0  0  0  0
   90.1200  119.5230  110.9380 C   0  0  0  0  0  0  0  0  0  0  0  0
   90.2430  119.1470  109.9060 H   0  0  0  0  0  0  0  0  0  0  0  0
   90.0050  120.6250  110.8820 H   0  0  0  0  0  0  0  0  0  0  0  0
   91.0760  119.3120  111.4630 H   0  0  0  0  0  0  0  0  0  0  0  0
   92.1020  122.3580  118.8510 O   0  0  0  0  0  0  0  0  0  0  0  0
   93.0980  122.5470  118.8090 H   0  0  0  0  0  0  0  0  0  0  0  0
   88.1120  118.3250  109.4530 O   0  0  0  0  0  0  0  0  0  0  0  0
   88.8890  117.9560  108.9570 H   0  0  0  0  0  0  0  0  0  0  0  0
  1 37  1  6  0  0  0
  1  2  1  0  0  0  0
  1 14  1  0  0  0  0
  2 19  1  0  0  0  0
  2  3  1  0  0  0  0
  3 20  1  0  0  0  0
  3  4  1  0  0  0  0
  4 22  1  1  0  0  0
  4  5  1  0  0  0  0
  5  6  2  0  0  0  0
  5 10  1  0  0  0  0
  6  7  1  0  0  0  0
  7 24  1  0  0  0  0
  7  8  2  0  0  0  0
  8 41  1  0  0  0  0
  9  8  1  0  0  0  0
  9 25  1  0  0  0  0
 10  9  2  0  0  0  0
 11 10  1  0  0  0  0
 11 27  1  0  0  0  0
 12 28  1  0  0  0  0
 12 11  1  0  0  0  0
 13 30  1  6  0  0  0
 13  4  1  0  0  0  0
 13 12  1  0  0  0  0
 14 31  1  1  0  0  0
 14 13  1  0  0  0  0
 15 33  1  0  0  0  0
 15 14  1  0  0  0  0
 16 34  1  0  0  0  0
 16 15  1  0  0  0  0
 17 16  1  0  0  0  0
 17 36  1  1  0  0  0
 17  1  1  0  0  0  0
 18  2  1  0  0  0  0
 21  3  1  0  0  0  0
 23  6  1  0  0  0  0
 26 11  1  0  0  0  0
 29 12  1  0  0  0  0
 32 15  1  0  0  0  0
 35 16  1  0  0  0  0
 37 40  1  0  0  0  0
 38 37  1  0  0  0  0
 39 37  1  0  0  0  0
 42 41  1  0  0  0  0
 43 17  1  0  0  0  0
 44 43  1  0  0  0  0
M  END
>  <MODEL>
1

>  <REMARK>
 VINA RESULT:      -9.5      0.000      0.000
  Name = ESTRADIOL
  3 active torsions:
  status: ('A' for Active; 'I' for Inactive)
    1  A    between atoms: C_1  and  C_2
    2  A    between atoms: C_9  and  O_10
    3  A    between atoms: C_19  and  O_20
                            x       y       z     vdW  Elec       q    Type
                         _______ _______ _______ _____ _____    ______ ____

>  <TORSDO>
F 3

>  <vina_affinity>
-9.5

>  <vina_rmsd_lb>
0.000

>  <vina_rmsd_ub>
0.000

$$$$
ESTRADIOL
 OpenBabel09042222203D

 44 47  0  0  1  0  0  0  0  0999 V2000
   93.3960  123.7380  116.7240 C   0  0  1  0  0  0  0  0  0  0  0  0
   94.2600  122.5920  117.2930 C   0  0  0  0  0  0  0  0  0  0  0  0
   93.6660  121.2030  116.9400 C   0  0  0  0  0  0  0  0  0  0  0  0
   92.1580  121.0630  117.3170 C   0  0  2  0  0  0  0  0  0  0  0  0
   91.5260  119.7340  116.8970 C   0  0  0  0  0  0  0  0  0  0  0  0
   92.2780  118.5390  116.8920 C   0  0  0  0  0  0  0  0  0  0  0  0
   91.6790  117.3150  116.5890 C   0  0  0  0  0  0  0  0  0  0  0  0
   90.3120  117.2500  116.3110 C   0  0  0  0  0  0  0  0  0  0  0  0
   89.5430  118.4130  116.3470 C   0  0  0  0  0  0  0  0  0  0  0  0
   90.1260  119.6520  116.6600 C   0  0  0  0  0  0  0  0  0  0  0  0
   89.2330  120.8740  116.6420 C   0  0  0  0  0  0  0  0  0  0  0  0
   89.8750  122.1120  117.2730 C   0  0  0  0  0  0  0  0  0  0  0  0
   91.3190  122.2590  116.7780 C   0  0  1  0  0  0  0  0  0  0  0  0
   91.9700  123.5670  117.2650 C   0  0  2  0  0  0  0  0  0  0  0  0
   91.2880  124.8980  116.9770 C   0  0  0  0  0  0  0  0  0  0  0  0
   92.4170  125.9340  117.1290 C   0  0  0  0  0  0  0  0  0  0  0  0
   93.7340  125.1370  117.2740 C   0  0  2  0  0  0  0  0  0  0  0  0
   95.2970  122.6630  116.8970 H   0  0  0  0  0  0  0  0  0  0  0  0
   94.3240  122.6770  118.4000 H   0  0  0  0  0  0  0  0  0  0  0  0
   94.2640  120.4620  117.5070 H   0  0  0  0  0  0  0  0  0  0  0  0
   93.8090  120.9850  115.8610 H   0  0  0  0  0  0  0  0  0  0  0  0
   92.1120  121.0840  118.4300 H   0  0  0  0  0  0  0  0  0  0  0  0
   93.3300  118.5300  117.1270 H   0  0  0  0  0  0  0  0  0  0  0  0
   92.2790  116.4140  116.5790 H   0  0  0  0  0  0  0  0  0  0  0  0
   88.4820  118.3510  116.1310 H   0  0  0  0  0  0  0  0  0  0  0  0
   88.9760  121.1020  115.5850 H   0  0  0  0  0  0  0  0  0  0  0  0
   88.2850  120.6540  117.1810 H   0  0  0  0  0  0  0  0  0  0  0  0
   89.8530  122.0250  118.3820 H   0  0  0  0  0  0  0  0  0  0  0  0
   89.2730  123.0020  116.9870 H   0  0  0  0  0  0  0  0  0  0  0  0
   91.2910  122.2410  115.6680 H   0  0  0  0  0  0  0  0  0  0  0  0
   92.0180  123.4970  118.3810 H   0  0  0  0  0  0  0  0  0  0  0  0
   90.8760  124.9140  115.9450 H   0  0  0  0  0  0  0  0  0  0  0  0
   90.4680  125.0940  117.7010 H   0  0  0  0  0  0  0  0  0  0  0  0
   92.2510  126.5650  118.0290 H   0  0  0  0  0  0  0  0  0  0  0  0
   92.4470  126.5920  116.2330 H   0  0  0  0  0  0  0  0  0  0  0  0
   93.9950  125.0610  118.3580 H   0  0  0  0  0  0  0  0  0  0  0  0
   93.4910  123.7520  115.1630 C   0  0  0  0  0  0  0  0  0  0  0  0
   92.5530  124.0720  114.6720 H   0  0  0  0  0  0  0  0  0  0  0  0
   94.3020  124.4190  114.8040 H   0  0  0  0  0  0  0  0  0  0  0  0
   93.7060  122.7290  114.7860 H   0  0  0  0  0  0  0  0  0  0  0  0
   89.7070  116.0340  116.0020 O   0  0  0  0  0  0  0  0  0  0  0  0
   89.0320  115.6040  116.6240 H   0  0  0  0  0  0  0  0  0  0  0  0
   94.7900  125.7470  116.5770 O   0  0  0  0  0  0  0  0  0  0  0  0
   94.4330  126.6020  116.2210 H   0  0  0  0  0  0  0  0  0  0  0  0
  1 37  1  6  0  0  0
  1 14  1  0  0  0  0
  1 17  1  0  0  0  0
  1  2  1  0  0  0  0
  2 19  1  0  0  0  0
  3  2  1  0  0  0  0
  3  4  1  0  0  0  0
  3 20  1  0  0  0  0
  4 22  1  1  0  0  0
  5  4  1  0  0  0  0
  6  5  1  0  0  0  0
  6 23  1  0  0  0  0
  7  6  2  0  0  0  0
  8  9  2  0  0  0  0
  8  7  1  0  0  0  0
  9 10  1  0  0  0  0
 10  5  2  0  0  0  0
 11 10  1  0  0  0  0
 11 27  1  0  0  0  0
 11 12  1  0  0  0  0
 12 28  1  0  0  0  0
 13 30  1  6  0  0  0
 13 14  1  0  0  0  0
 13 12  1  0  0  0  0
 13  4  1  0  0  0  0
 14 31  1  1  0  0  0
 15 16  1  0  0  0  0
 15 14  1  0  0  0  0
 15 33  1  0  0  0  0
 16 17  1  0  0  0  0
 16 34  1  0  0  0  0
 17 36  1  1  0  0  0
 18  2  1  0  0  0  0
 21  3  1  0  0  0  0
 24  7  1  0  0  0  0
 25  9  1  0  0  0  0
 26 11  1  0  0  0  0
 29 12  1  0  0  0  0
 32 15  1  0  0  0  0
 35 16  1  0  0  0  0
 38 37  1  0  0  0  0
 39 37  1  0  0  0  0
 40 37  1  0  0  0  0
 41  8  1  0  0  0  0
 41 42  1  0  0  0  0
 43 17  1  0  0  0  0
 44 43  1  0  0  0  0
M  END
>  <MODEL>
2

>  <REMARK>
 VINA RESULT:      -9.0      3.709      7.091
  Name = ESTRADIOL
  3 active torsions:
  status: ('A' for Active; 'I' for Inactive)
    1  A    between atoms: C_1  and  C_2
    2  A    between atoms: C_9  and  O_10
    3  A    between atoms: C_19  and  O_20
                            x       y       z     vdW  Elec       q    Type
                         _______ _______ _______ _____ _____    ______ ____

>  <TORSDO>
F 3

>  <vina_affinity>
-9.0

>  <vina_rmsd_lb>
3.709

>  <vina_rmsd_ub>
7.091

$$$$
ESTRADIOL
 OpenBabel09042222203D

 43 46  0  0  1  0  0  0  0  0999 V2000
   88.9480  118.8440  111.7150 C   0  0  1  0  0  0  0  0  0  0  0  0
   88.0260  119.9300  112.3110 C   0  0  0  0  0  0  0  0  0  0  0  0
   88.7250  120.6990  113.4630 C   0  0  0  0  0  0  0  0  0  0  0  0
   89.3320  119.7630  114.5540 C   0  0  2  0  0  0  0  0  0  0  0  0
   90.1050  120.4950  115.6520 C   0  0  0  0  0  0  0  0  0  0  0  0
   89.7140  121.7820  116.0850 C   0  0  0  0  0  0  0  0  0  0  0  0
   90.3690  122.4120  117.1450 C   0  0  0  0  0  0  0  0  0  0  0  0
   91.4070  121.7660  117.8110 C   0  0  0  0  0  0  0  0  0  0  0  0
   92.0600  122.4000  118.8610 O   0  0  0  0  0  1  0  0  0  0  0  0
   91.7870  120.4810  117.4270 C   0  0  0  0  0  0  0  0  0  0  0  0
   91.1340  119.8250  116.3700 C   0  0  0  0  0  0  0  0  0  0  0  0
   91.6270  118.4470  115.9850 C   0  0  0  0  0  0  0  0  0  0  0  0
   90.6840  117.7010  115.0380 C   0  0  0  0  0  0  0  0  0  0  0  0
   90.2120  118.6430  113.9230 C   0  0  1  0  0  0  0  0  0  0  0  0
   89.3750  117.9100  112.8570 C   0  0  2  0  0  0  0  0  0  0  0  0
   89.9510  116.6830  112.1610 C   0  0  0  0  0  0  0  0  0  0  0  0
   89.1020  116.5430  110.8830 C   0  0  0  0  0  0  0  0  0  0  0  0
   88.2410  117.8310  110.7900 C   0  0  2  0  0  0  0  0  0  0  0  0
   87.7190  120.6460  111.5190 H   0  0  0  0  0  0  0  0  0  0  0  0
   87.0980  119.4640  112.7100 H   0  0  0  0  0  0  0  0  0  0  0  0
   89.5110  121.3700  113.0580 H   0  0  0  0  0  0  0  0  0  0  0  0
   87.9450  121.3450  113.9160 H   0  0  0  0  0  0  0  0  0  0  0  0
   88.4680  119.2770  115.0620 H   0  0  0  0  0  0  0  0  0  0  0  0
   88.8970  122.3130  115.6200 H   0  0  0  0  0  0  0  0  0  0  0  0
   90.0620  123.4030  117.4530 H   0  0  0  0  0  0  0  0  0  0  0  0
   92.5970  119.9900  117.9550 H   0  0  0  0  0  0  0  0  0  0  0  0
   91.7710  117.8300  116.8990 H   0  0  0  0  0  0  0  0  0  0  0  0
   92.6180  118.5570  115.4930 H   0  0  0  0  0  0  0  0  0  0  0  0
   89.8130  117.3060  115.6060 H   0  0  0  0  0  0  0  0  0  0  0  0
   91.2330  116.8360  114.6090 H   0  0  0  0  0  0  0  0  0  0  0  0
   91.1180  119.0820  113.4560 H   0  0  0  0  0  0  0  0  0  0  0  0
   88.4560  117.5440  113.3810 H   0  0  0  0  0  0  0  0  0  0  0  0
   89.8600  115.7780  112.8000 H   0  0  0  0  0  0  0  0  0  0  0  0
   91.0220  116.8430  111.9060 H   0  0  0  0  0  0  0  0  0  0  0  0
   89.7720  116.4230  110.0050 H   0  0  0  0  0  0  0  0  0  0  0  0
   88.4440  115.6500  110.9480 H   0  0  0  0  0  0  0  0  0  0  0  0
   87.2350  117.5970  111.2060 H   0  0  0  0  0  0  0  0  0  0  0  0
   90.1410  119.5150  110.9610 C   0  0  0  0  0  0  0  0  0  0  0  0
   91.0440  118.8730  111.0330 H   0  0  0  0  0  0  0  0  0  0  0  0
   89.9510  119.6580  109.8830 H   0  0  0  0  0  0  0  0  0  0  0  0
   90.3950  120.5070  111.3900 H   0  0  0  0  0  0  0  0  0  0  0  0
   88.0550  118.2960  109.4730 O   0  0  0  0  0  0  0  0  0  0  0  0
   88.9350  118.3330  109.0190 H   0  0  0  0  0  0  0  0  0  0  0  0
  1 38  1  6  0  0  0
  1  2  1  0  0  0  0
  1 15  1  0  0  0  0
  2 20  1  0  0  0  0
  2  3  1  0  0  0  0
  3 22  1  0  0  0  0
  3  4  1  0  0  0  0
  4 23  1  1  0  0  0
  4  5  1  0  0  0  0
  5  6  2  0  0  0  0
  5 11  1  0  0  0  0
  6  7  1  0  0  0  0
  7 25  1  0  0  0  0
  7  8  2  0  0  0  0
  8  9  1  0  0  0  0
 10  8  1  0  0  0  0
 10 26  1  0  0  0  0
 11 10  2  0  0  0  0
 12 11  1  0  0  0  0
 12 27  1  0  0  0  0
 13 29  1  0  0  0  0
 13 12  1  0  0  0  0
 14 31  1  6  0  0  0
 14  4  1  0  0  0  0
 14 13  1  0  0  0  0
 15 32  1  1  0  0  0
 15 14  1  0  0  0  0
 16 33  1  0  0  0  0
 16 15  1  0  0  0  0
 17 36  1  0  0  0  0
 17 16  1  0  0  0  0
 18 17  1  0  0  0  0
 18 37  1  1  0  0  0
 18  1  1  0  0  0  0
 19  2  1  0  0  0  0
 21  3  1  0  0  0  0
 24  6  1  0  0  0  0
 28 12  1  0  0  0  0
 30 13  1  0  0  0  0
 34 16  1  0  0  0  0
 35 17  1  0  0  0  0
 38 39  1  0  0  0  0
 38 41  1  0  0  0  0
 40 38  1  0  0  0  0
 42 18  1  0  0  0  0
 43 42  1  0  0  0  0
M  END
>  <MODEL>
1

>  <REMARK>
 VINA RESULT:      -9.8      0.000      0.000
  Name = ESTRADIOL
  2 active torsions:
  status: ('A' for Active; 'I' for Inactive)
    1  A    between atoms: C_1  and  C_2
    2  A    between atoms: C_19  and  O_20
                            x       y       z     vdW  Elec       q    Type
                         _______ _______ _______ _____ _____    ______ ____

>  <TORSDO>
F 2

>  <vina_affinity>
-9.8

>  <vina_rmsd_lb>
0.000

>  <vina_rmsd_ub>
0.000

$$$$
ESTRADIOL
 OpenBabel09042222203D

 43 46  0  0  1  0  0  0  0  0999 V2000
   93.5300  123.6590  116.8140 C   0  0  1  0  0  0  0  0  0  0  0  0
   94.3760  122.4830  117.3440 C   0  0  0  0  0  0  0  0  0  0  0  0
   93.7480  121.1150  116.9680 C   0  0  0  0  0  0  0  0  0  0  0  0
   92.2430  120.9960  117.3630 C   0  0  2  0  0  0  0  0  0  0  0  0
   91.5770  119.6920  116.9200 C   0  0  0  0  0  0  0  0  0  0  0  0
   92.3050  118.4810  116.8730 C   0  0  0  0  0  0  0  0  0  0  0  0
   91.6750  117.2780  116.5500 C   0  0  0  0  0  0  0  0  0  0  0  0
   90.3060  117.2500  116.2940 C   0  0  0  0  0  0  0  0  0  0  0  0
   89.6850  116.0510  115.9660 O   0  0  0  0  0  1  0  0  0  0  0  0
   89.5590  118.4250  116.3690 C   0  0  0  0  0  0  0  0  0  0  0  0
   90.1720  119.6440  116.7030 C   0  0  0  0  0  0  0  0  0  0  0  0
   89.3050  120.8840  116.7290 C   0  0  0  0  0  0  0  0  0  0  0  0
   89.9820  122.0930  117.3780 C   0  0  0  0  0  0  0  0  0  0  0  0
   91.4210  122.2230  116.8650 C   0  0  1  0  0  0  0  0  0  0  0  0
   92.1070  123.5050  117.3720 C   0  0  2  0  0  0  0  0  0  0  0  0
   91.4470  124.8580  117.1320 C   0  0  0  0  0  0  0  0  0  0  0  0
   92.5940  125.8720  117.3050 C   0  0  0  0  0  0  0  0  0  0  0  0
   93.8990  125.0390  117.4000 C   0  0  2  0  0  0  0  0  0  0  0  0
   95.4090  122.5410  116.9360 H   0  0  0  0  0  0  0  0  0  0  0  0
   94.4580  122.5410  118.4520 H   0  0  0  0  0  0  0  0  0  0  0  0
   93.8730  120.9170  115.8830 H   0  0  0  0  0  0  0  0  0  0  0  0
   94.3380  120.3480  117.5100 H   0  0  0  0  0  0  0  0  0  0  0  0
   92.2120  120.9910  118.4760 H   0  0  0  0  0  0  0  0  0  0  0  0
   93.3610  118.4460  117.0910 H   0  0  0  0  0  0  0  0  0  0  0  0
   92.2530  116.3640  116.5070 H   0  0  0  0  0  0  0  0  0  0  0  0
   88.4950  118.3870  116.1680 H   0  0  0  0  0  0  0  0  0  0  0  0
   88.3600  120.6700  117.2770 H   0  0  0  0  0  0  0  0  0  0  0  0
   89.0360  121.1420  115.6810 H   0  0  0  0  0  0  0  0  0  0  0  0
   89.9740  121.9810  118.4850 H   0  0  0  0  0  0  0  0  0  0  0  0
   89.3940  123.0010  117.1230 H   0  0  0  0  0  0  0  0  0  0  0  0
   91.3760  122.2320  115.7550 H   0  0  0  0  0  0  0  0  0  0  0  0
   92.1700  123.4050  118.4850 H   0  0  0  0  0  0  0  0  0  0  0  0
   90.6350  125.0460  117.8680 H   0  0  0  0  0  0  0  0  0  0  0  0
   91.0260  124.9120  116.1040 H   0  0  0  0  0  0  0  0  0  0  0  0
   92.6040  126.5700  116.4400 H   0  0  0  0  0  0  0  0  0  0  0  0
   92.4530  126.4650  118.2340 H   0  0  0  0  0  0  0  0  0  0  0  0
   94.1500  124.9220  118.4790 H   0  0  0  0  0  0  0  0  0  0  0  0
   93.6000  123.7040  115.2530 C   0  0  0  0  0  0  0  0  0  0  0  0
   94.1070  122.7940  114.8700 H   0  0  0  0  0  0  0  0  0  0  0  0
   92.6060  123.7270  114.7720 H   0  0  0  0  0  0  0  0  0  0  0  0
   94.1660  124.5880  114.8910 H   0  0  0  0  0  0  0  0  0  0  0  0
   95.0060  125.6450  116.7730 O   0  0  0  0  0  0  0  0  0  0  0  0
   95.5000  124.9570  116.2580 H   0  0  0  0  0  0  0  0  0  0  0  0
  1 38  1  6  0  0  0
  1  2  1  0  0  0  0
  1 15  1  0  0  0  0
  1 18  1  0  0  0  0
  2 20  1  0  0  0  0
  3  2  1  0  0  0  0
  3  4  1  0  0  0  0
  3 22  1  0  0  0  0
  4 23  1  1  0  0  0
  5  4  1  0  0  0  0
  6  5  1  0  0  0  0
  6 24  1  0  0  0  0
  7  6  2  0  0  0  0
  8 10  2  0  0  0  0
  8  7  1  0  0  0  0
  9  8  1  0  0  0  0
 10 11  1  0  0  0  0
 11 12  1  0  0  0  0
 11  5  2  0  0  0  0
 12 27  1  0  0  0  0
 12 13  1  0  0  0  0
 13 29  1  0  0  0  0
 14 31  1  6  0  0  0
 14  4  1  0  0  0  0
 14 15  1  0  0  0  0
 14 13  1  0  0  0  0
 15 32  1  1  0  0  0
 16 17  1  0  0  0  0
 16 15  1  0  0  0  0
 16 33  1  0  0  0  0
 17 18  1  0  0  0  0
 17 36  1  0  0  0  0
 18 37  1  1  0  0  0
 19  2  1  0  0  0  0
 21  3  1  0  0  0  0
 25  7  1  0  0  0  0
 26 10  1  0  0  0  0
 28 12  1  0  0  0  0
 30 13  1  0  0  0  0
 34 16  1  0  0  0  0
 35 17  1  0  0  0  0
 39 38  1  0  0  0  0
 40 38  1  0  0  0  0
 41 38  1  0  0  0  0
 42 18  1  0  0  0  0
 43 42  1  0  0  0  0
M  END
>  <MODEL>
2

>  <REMARK>
 VINA RESULT:      -9.2      3.698      7.153
  Name = ESTRADIOL
  2 active torsions:
  status: ('A' for Active; 'I' for Inactive)
    1  A    between atoms: C_1  and  C_2
    2  A    between atoms: C_19  and  O_20
                            x       y       z     vdW  Elec       q    Type
                         _______ _______ _______ _____ _____    ______ ____

>  <TORSDO>
F 2

>  <vina_affinity>
-9.2

>  <vina_rmsd_lb>
3.698

>  <vina_rmsd_ub>
7.153

$$$$
UDCA
 OpenBabel09042222203D

 67 70  0  0  1  0  0  0  0  0999 V2000
   90.3890  119.8630  113.9610 C   0  0  1  0  0  0  0  0  0  0  0  0
   89.2790  120.8890  114.3060 C   0  0  0  0  0  0  0  0  0  0  0  0
   89.9480  121.9940  115.1390 C   0  0  0  0  0  0  0  0  0  0  0  0
   91.4400  121.7100  115.0060 C   0  0  1  0  0  0  0  0  0  0  0  0
   92.4310  122.3950  115.9870 C   0  0  2  0  0  0  0  0  0  0  0  0
   92.2320  123.9470  115.9790 C   0  0  2  0  0  0  0  0  0  0  0  0
   93.5540  124.7280  115.9820 C   0  0  0  0  0  0  0  0  0  0  0  0
   94.5760  124.1040  116.9530 C   0  0  2  0  0  0  0  0  0  0  0  0
   95.8070  125.0280  117.1110 C   0  0  0  0  0  0  0  0  0  0  0  0
   96.6850  125.1040  115.8410 C   0  0  1  0  0  0  0  0  0  0  0  0
   96.6830  123.7950  115.0270 C   0  0  0  0  0  0  0  0  0  0  0  0
   96.4010  122.5810  115.9160 C   0  0  0  0  0  0  0  0  0  0  0  0
   94.9730  122.6170  116.5710 C   0  0  2  0  0  0  0  0  0  0  0  0
   93.8950  121.9850  115.5900 C   0  0  1  0  0  0  0  0  0  0  0  0
   94.0400  120.4380  115.3900 C   0  0  0  0  0  0  0  0  0  0  0  0
   92.9630  119.8310  114.4650 C   0  0  0  0  0  0  0  0  0  0  0  0
   91.5400  120.1740  114.9640 C   0  0  2  0  0  0  0  0  0  0  0  0
   90.7630  120.1870  112.9610 H   0  0  0  0  0  0  0  0  0  0  0  0
   88.8520  121.3140  113.3710 H   0  0  0  0  0  0  0  0  0  0  0  0
   88.4430  120.4530  114.8860 H   0  0  0  0  0  0  0  0  0  0  0  0
   89.6820  122.9990  114.7470 H   0  0  0  0  0  0  0  0  0  0  0  0
   89.6330  121.9220  116.2030 H   0  0  0  0  0  0  0  0  0  0  0  0
   91.7190  122.1010  113.9940 H   0  0  0  0  0  0  0  0  0  0  0  0
   92.2270  122.0440  117.0160 H   0  0  0  0  0  0  0  0  0  0  0  0
   91.7000  124.2700  115.0530 H   0  0  0  0  0  0  0  0  0  0  0  0
   93.3480  125.7810  116.2710 H   0  0  0  0  0  0  0  0  0  0  0  0
   93.9590  124.7570  114.9500 H   0  0  0  0  0  0  0  0  0  0  0  0
   94.0710  124.1060  117.9460 H   0  0  0  0  0  0  0  0  0  0  0  0
   96.4280  124.6370  117.9470 H   0  0  0  0  0  0  0  0  0  0  0  0
   95.4860  126.0480  117.4180 H   0  0  0  0  0  0  0  0  0  0  0  0
   97.7360  125.2920  116.1710 H   0  0  0  0  0  0  0  0  0  0  0  0
   95.9370  123.8360  114.2060 H   0  0  0  0  0  0  0  0  0  0  0  0
   97.6760  123.6680  114.5440 H   0  0  0  0  0  0  0  0  0  0  0  0
   97.1890  122.5630  116.7040 H   0  0  0  0  0  0  0  0  0  0  0  0
   96.5610  121.6610  115.3240 H   0  0  0  0  0  0  0  0  0  0  0  0
   94.0750  122.4200  114.5810 H   0  0  0  0  0  0  0  0  0  0  0  0
   94.0030  119.9050  116.3600 H   0  0  0  0  0  0  0  0  0  0  0  0
   95.0220  120.1960  114.9370 H   0  0  0  0  0  0  0  0  0  0  0  0
   93.1160  120.2140  113.4320 H   0  0  0  0  0  0  0  0  0  0  0  0
   93.1110  118.7320  114.4340 H   0  0  0  0  0  0  0  0  0  0  0  0
   95.0590  121.8020  117.8910 C   0  0  0  0  0  0  0  0  0  0  0  0
   95.6920  122.3300  118.6350 H   0  0  0  0  0  0  0  0  0  0  0  0
   95.5220  120.8050  117.7290 H   0  0  0  0  0  0  0  0  0  0  0  0
   94.0560  121.6640  118.3470 H   0  0  0  0  0  0  0  0  0  0  0  0
   91.2790  119.5060  116.3470 C   0  0  0  0  0  0  0  0  0  0  0  0
   92.0650  118.7870  116.6410 H   0  0  0  0  0  0  0  0  0  0  0  0
   91.2140  120.2550  117.1640 H   0  0  0  0  0  0  0  0  0  0  0  0
   90.3430  118.9170  116.3120 H   0  0  0  0  0  0  0  0  0  0  0  0
   89.8690  118.4010  113.7160 C   0  0  2  0  0  0  0  0  0  0  0  0
   89.1860  118.2100  114.5760 H   0  0  0  0  0  0  0  0  0  0  0  0
   90.9200  117.2670  113.7660 C   0  0  0  0  0  0  0  0  0  0  0  0
   90.6260  116.4570  114.4620 H   0  0  0  0  0  0  0  0  0  0  0  0
   91.1310  116.8300  112.7740 H   0  0  0  0  0  0  0  0  0  0  0  0
   91.8830  117.6730  114.1420 H   0  0  0  0  0  0  0  0  0  0  0  0
   89.0090  118.3010  112.4320 C   0  0  0  0  0  0  0  0  0  0  0  0
   88.8200  117.2290  112.1930 H   0  0  0  0  0  0  0  0  0  0  0  0
   88.0250  118.7940  112.5910 H   0  0  0  0  0  0  0  0  0  0  0  0
   89.6960  118.9410  111.2130 C   0  0  0  0  0  0  0  0  0  0  0  0
   89.5570  120.0450  111.2400 H   0  0  0  0  0  0  0  0  0  0  0  0
   90.7870  118.7260  111.2390 H   0  0  0  0  0  0  0  0  0  0  0  0
   89.1430  118.4060  109.9250 C   0  0  0  0  0  0  0  0  0  0  0  0
   88.2180  117.5500  109.9430 O   0  0  0  0  0  1  0  0  0  0  0  0
   89.5720  118.9200  108.7080 O   0  0  0  0  0  0  0  0  0  0  0  0
   91.4780  124.3380  117.0960 O   0  0  0  0  0  0  0  0  0  0  0  0
   90.5530  124.5040  116.7830 H   0  0  0  0  0  0  0  0  0  0  0  0
   96.2490  126.1600  115.0210 O   0  0  0  0  0  0  0  0  0  0  0  0
   95.4210  126.5220  115.4300 H   0  0  0  0  0  0  0  0  0  0  0  0
  1 18  1  6  0  0  0
  1  2  1  0  0  0  0
  1 17  1  0  0  0  0
  2 20  1  0  0  0  0
  2  3  1  0  0  0  0
  3 22  1  0  0  0  0
  4 23  1  6  0  0  0
  4  3  1  0  0  0  0
  4  5  1  0  0  0  0
  5 24  1  1  0  0  0
  6 25  1  6  0  0  0
  6  7  1  0  0  0  0
  6  5  1  0  0  0  0
  6 64  1  0  0  0  0
  7 26  1  0  0  0  0
  7  8  1  0  0  0  0
  8  9  1  0  0  0  0
  8 28  1  1  0  0  0
  9 30  1  0  0  0  0
  9 29  1  0  0  0  0
 10 31  1  1  0  0  0
 10  9  1  0  0  0  0
 11 10  1  0  0  0  0
 11 12  1  0  0  0  0
 12 13  1  0  0  0  0
 12 34  1  0  0  0  0
 13  8  1  0  0  0  0
 13 41  1  1  0  0  0
 14 36  1  6  0  0  0
 14  5  1  0  0  0  0
 14 13  1  0  0  0  0
 15 14  1  0  0  0  0
 15 37  1  0  0  0  0
 16 17  1  0  0  0  0
 16 15  1  0  0  0  0
 17  4  1  0  0  0  0
 17 45  1  1  0  0  0
 19  2  1  0  0  0  0
 21  3  1  0  0  0  0
 27  7  1  0  0  0  0
 32 11  1  0  0  0  0
 33 11  1  0  0  0  0
 35 12  1  0  0  0  0
 38 15  1  0  0  0  0
 39 16  1  0  0  0  0
 40 16  1  0  0  0  0
 41 44  1  0  0  0  0
 41 42  1  0  0  0  0
 43 41  1  0  0  0  0
 45 46  1  0  0  0  0
 45 47  1  0  0  0  0
 48 45  1  0  0  0  0
 49 51  1  0  0  0  0
 49  1  1  0  0  0  0
 49 50  1  1  0  0  0
 51 54  1  0  0  0  0
 51 52  1  0  0  0  0
 53 51  1  0  0  0  0
 55 57  1  0  0  0  0
 55 49  1  0  0  0  0
 56 55  1  0  0  0  0
 58 60  1  0  0  0  0
 58 59  1  0  0  0  0
 58 55  1  0  0  0  0
 61 62  1  0  0  0  0
 61 58  1  0  0  0  0
 63 61  2  0  0  0  0
 65 64  1  0  0  0  0
 66 67  1  0  0  0  0
 66 10  1  0  0  0  0
M  END
>  <MODEL>
1

>  <REMARK>
 VINA RESULT:      -9.5      0.000      0.000
  Name = UDCA
  9 active torsions:
  status: ('A' for Active; 'I' for Inactive)
    1  A    between atoms: C_1  and  C_2
    2  A    between atoms: C_2  and  C_3
    3  A    between atoms: C_2  and  C_8
    4  A    between atoms: C_3  and  C_4
    5  A    between atoms: C_4  and  C_5
    6  A    between atoms: C_13  and  O_14
    7  A    between atoms: C_18  and  O_19
    8  A    between atoms: C_22  and  C_23
    9  A    between atoms: C_27  and  C_28
                            x       y       z     vdW  Elec       q    Type
                         _______ _______ _______ _____ _____    ______ ____

>  <TORSDO>
F 9

>  <vina_affinity>
-9.5

>  <vina_rmsd_lb>
0.000

>  <vina_rmsd_ub>
0.000

$$$$
UDCA
 OpenBabel09042222203D

 67 70  0  0  1  0  0  0  0  0999 V2000
   89.7700  120.0960  112.5710 C   0  0  1  0  0  0  0  0  0  0  0  0
   88.5690  119.9210  113.5370 C   0  0  0  0  0  0  0  0  0  0  0  0
   88.9570  120.6230  114.8490 C   0  0  0  0  0  0  0  0  0  0  0  0
   90.2220  121.3980  114.4970 C   0  0  1  0  0  0  0  0  0  0  0  0
   91.1130  121.9520  115.6430 C   0  0  2  0  0  0  0  0  0  0  0  0
   90.2670  122.8280  116.6260 C   0  0  2  0  0  0  0  0  0  0  0  0
   90.9820  124.1150  117.0600 C   0  0  0  0  0  0  0  0  0  0  0  0
   92.4690  123.8570  117.3710 C   0  0  2  0  0  0  0  0  0  0  0  0
   93.1120  125.1060  118.0200 C   0  0  0  0  0  0  0  0  0  0  0  0
   93.2660  126.2950  117.0440 C   0  0  1  0  0  0  0  0  0  0  0  0
   93.5100  125.8520  115.5880 C   0  0  0  0  0  0  0  0  0  0  0  0
   94.1800  124.4770  115.5230 C   0  0  0  0  0  0  0  0  0  0  0  0
   93.2870  123.3300  116.1190 C   0  0  2  0  0  0  0  0  0  0  0  0
   92.3040  122.7580  115.0100 C   0  0  1  0  0  0  0  0  0  0  0  0
   93.0200  121.9530  113.8720 C   0  0  0  0  0  0  0  0  0  0  0  0
   92.0490  121.3700  112.8230 C   0  0  0  0  0  0  0  0  0  0  0  0
   90.9620  120.4970  113.4910 C   0  0  2  0  0  0  0  0  0  0  0  0
   89.5200  121.0110  111.9840 H   0  0  0  0  0  0  0  0  0  0  0  0
   87.6610  120.3910  113.1010 H   0  0  0  0  0  0  0  0  0  0  0  0
   88.3280  118.8620  113.7490 H   0  0  0  0  0  0  0  0  0  0  0  0
   88.1420  121.2960  115.1910 H   0  0  0  0  0  0  0  0  0  0  0  0
   89.1690  119.8730  115.6410 H   0  0  0  0  0  0  0  0  0  0  0  0
   89.8620  122.3050  113.9480 H   0  0  0  0  0  0  0  0  0  0  0  0
   91.5220  121.1060  116.2280 H   0  0  0  0  0  0  0  0  0  0  0  0
   89.3220  123.1650  116.1370 H   0  0  0  0  0  0  0  0  0  0  0  0
   90.4710  124.5250  117.9580 H   0  0  0  0  0  0  0  0  0  0  0  0
   90.8740  124.8770  116.2600 H   0  0  0  0  0  0  0  0  0  0  0  0
   92.4690  123.0750  118.1640 H   0  0  0  0  0  0  0  0  0  0  0  0
   94.1210  124.8220  118.3910 H   0  0  0  0  0  0  0  0  0  0  0  0
   92.5310  125.4170  118.9160 H   0  0  0  0  0  0  0  0  0  0  0  0
   94.1580  126.8830  117.3690 H   0  0  0  0  0  0  0  0  0  0  0  0
   92.5600  125.8310  115.0120 H   0  0  0  0  0  0  0  0  0  0  0  0
   94.1640  126.5990  115.0880 H   0  0  0  0  0  0  0  0  0  0  0  0
   95.1390  124.5550  116.0850 H   0  0  0  0  0  0  0  0  0  0  0  0
   94.4730  124.2730  114.4770 H   0  0  0  0  0  0  0  0  0  0  0  0
   91.8460  123.6320  114.4940 H   0  0  0  0  0  0  0  0  0  0  0  0
   93.6190  121.1200  114.2890 H   0  0  0  0  0  0  0  0  0  0  0  0
   93.7280  122.6050  113.3230 H   0  0  0  0  0  0  0  0  0  0  0  0
   91.5830  122.2070  112.2570 H   0  0  0  0  0  0  0  0  0  0  0  0
   92.6380  120.7720  112.0980 H   0  0  0  0  0  0  0  0  0  0  0  0
   94.2520  122.2200  116.6230 C   0  0  0  0  0  0  0  0  0  0  0  0
   94.4530  122.3420  117.7080 H   0  0  0  0  0  0  0  0  0  0  0  0
   95.2360  122.2670  116.1090 H   0  0  0  0  0  0  0  0  0  0  0  0
   93.8160  121.2100  116.4770 H   0  0  0  0  0  0  0  0  0  0  0  0
   91.6100  119.2440  114.1530 C   0  0  0  0  0  0  0  0  0  0  0  0
   92.3810  118.7660  113.5230 H   0  0  0  0  0  0  0  0  0  0  0  0
   92.0980  119.4910  115.1190 H   0  0  0  0  0  0  0  0  0  0  0  0
   90.8420  118.4630  114.3160 H   0  0  0  0  0  0  0  0  0  0  0  0
   89.8980  118.9700  111.4830 C   0  0  2  0  0  0  0  0  0  0  0  0
   90.9530  118.6260  111.5740 H   0  0  0  0  0  0  0  0  0  0  0  0
   89.7310  119.4020  110.0070 C   0  0  0  0  0  0  0  0  0  0  0  0
   90.5000  118.9500  109.3520 H   0  0  0  0  0  0  0  0  0  0  0  0
   88.7310  119.1710  109.6000 H   0  0  0  0  0  0  0  0  0  0  0  0
   89.8560  120.5030  109.9280 H   0  0  0  0  0  0  0  0  0  0  0  0
   89.0010  117.7500  111.8060 C   0  0  0  0  0  0  0  0  0  0  0  0
   88.7440  117.7540  112.8890 H   0  0  0  0  0  0  0  0  0  0  0  0
   88.0520  117.8090  111.2290 H   0  0  0  0  0  0  0  0  0  0  0  0
   89.6930  116.4120  111.4900 C   0  0  0  0  0  0  0  0  0  0  0  0
   89.0000  115.7550  110.9180 H   0  0  0  0  0  0  0  0  0  0  0  0
   90.5950  116.5930  110.8660 H   0  0  0  0  0  0  0  0  0  0  0  0
   90.1220  115.7050  112.7420 C   0  0  0  0  0  0  0  0  0  0  0  0
   90.6170  114.5470  112.6740 O   0  0  0  0  0  0  0  0  0  0  0  0
   90.0730  116.3530  113.9680 O   0  0  0  0  0  1  0  0  0  0  0  0
   89.9450  122.0860  117.7720 O   0  0  0  0  0  0  0  0  0  0  0  0
   89.1500  122.5100  118.1840 H   0  0  0  0  0  0  0  0  0  0  0  0
   92.1180  127.1060  117.0950 O   0  0  0  0  0  0  0  0  0  0  0  0
   92.0530  127.5740  116.2230 H   0  0  0  0  0  0  0  0  0  0  0  0
  1 18  1  6  0  0  0
  1 17  1  0  0  0  0
  1  2  1  0  0  0  0
  2 20  1  0  0  0  0
  2  3  1  0  0  0  0
  3 21  1  0  0  0  0
  3 22  1  0  0  0  0
  4 23  1  6  0  0  0
  4  3  1  0  0  0  0
  4  5  1  0  0  0  0
  5 24  1  1  0  0  0
  5  6  1  0  0  0  0
  6 25  1  6  0  0  0
  6  7  1  0  0  0  0
  6 64  1  0  0  0  0
  7  8  1  0  0  0  0
  7 26  1  0  0  0  0
  8  9  1  0  0  0  0
  8 28  1  1  0  0  0
  9 29  1  0  0  0  0
  9 30  1  0  0  0  0
 10 66  1  0  0  0  0
 10 31  1  1  0  0  0
 10  9  1  0  0  0  0
 11 10  1  0  0  0  0
 12 11  1  0  0  0  0
 12 34  1  0  0  0  0
 12 13  1  0  0  0  0
 13 41  1  1  0  0  0
 13  8  1  0  0  0  0
 14 36  1  6  0  0  0
 14  5  1  0  0  0  0
 14 13  1  0  0  0  0
 15 37  1  0  0  0  0
 15 14  1  0  0  0  0
 16 17  1  0  0  0  0
 16 15  1  0  0  0  0
 17 45  1  1  0  0  0
 17  4  1  0  0  0  0
 19  2  1  0  0  0  0
 27  7  1  0  0  0  0
 32 11  1  0  0  0  0
 33 11  1  0  0  0  0
 35 12  1  0  0  0  0
 38 15  1  0  0  0  0
 39 16  1  0  0  0  0
 40 16  1  0  0  0  0
 41 42  1  0  0  0  0
 43 41  1  0  0  0  0
 44 41  1  0  0  0  0
 45 48  1  0  0  0  0
 45 47  1  0  0  0  0
 46 45  1  0  0  0  0
 49 50  1  1  0  0  0
 49 55  1  0  0  0  0
 49  1  1  0  0  0  0
 51 49  1  0  0  0  0
 52 51  1  0  0  0  0
 53 51  1  0  0  0  0
 54 51  1  0  0  0  0
 55 56  1  0  0  0  0
 57 55  1  0  0  0  0
 58 55  1  0  0  0  0
 58 61  1  0  0  0  0
 59 58  1  0  0  0  0
 60 58  1  0  0  0  0
 61 63  1  0  0  0  0
 62 61  2  0  0  0  0
 64 65  1  0  0  0  0
 67 66  1  0  0  0  0
M  END
>  <MODEL>
2

>  <REMARK>
 VINA RESULT:      -9.4      2.290      2.927
  Name = UDCA
  9 active torsions:
  status: ('A' for Active; 'I' for Inactive)
    1  A    between atoms: C_1  and  C_2
    2  A    between atoms: C_2  and  C_3
    3  A    between atoms: C_2  and  C_8
    4  A    between atoms: C_3  and  C_4
    5  A    between atoms: C_4  and  C_5
    6  A    between atoms: C_13  and  O_14
    7  A    between atoms: C_18  and  O_19
    8  A    between atoms: C_22  and  C_23
    9  A    between atoms: C_27  and  C_28
                            x       y       z     vdW  Elec       q    Type
                         _______ _______ _______ _____ _____    ______ ____

>  <TORSDO>
F 9

>  <vina_affinity>
-9.4

>  <vina_rmsd_lb>
2.290

>  <vina_rmsd_ub>
2.927

$$$$
CA
 OpenBabel09042222203D

 68 71  0  0  1  0  0  0  0  0999 V2000
   92.1030  122.4330  117.4140 C   0  0  1  0  0  0  0  0  0  0  0  0
   92.5110  121.2190  118.2910 C   0  0  0  0  0  0  0  0  0  0  0  0
   92.2230  119.9640  117.4490 C   0  0  0  0  0  0  0  0  0  0  0  0
   91.8340  120.5060  116.0770 C   0  0  1  0  0  0  0  0  0  0  0  0
   91.0140  119.6230  115.1250 C   0  0  1  0  0  0  0  0  0  0  0  0
   90.9820  120.2830  113.7160 C   0  0  2  0  0  0  0  0  0  0  0  0
   91.1910  121.8470  113.7010 C   0  0  0  0  0  0  0  0  0  0  0  0
   90.9550  122.6610  115.0140 C   0  0  1  0  0  0  0  0  0  0  0  0
   91.1210  121.8470  116.3540 C   0  0  2  0  0  0  0  0  0  0  0  0
   89.7880  119.6970  112.8700 C   0  0  1  0  0  0  0  0  0  0  0  0
   90.0320  119.9770  111.3570 C   0  0  0  0  0  0  0  0  0  0  0  0
   88.9360  119.4010  110.4320 C   0  0  0  0  0  0  0  0  0  0  0  0
   88.3430  118.0560  110.9130 C   0  0  2  0  0  0  0  0  0  0  0  0
   89.3180  117.3150  111.8250 C   0  0  0  0  0  0  0  0  0  0  0  0
   89.6860  118.1200  113.1040 C   0  0  1  0  0  0  0  0  0  0  0  0
   90.9850  117.4890  113.6930 C   0  0  0  0  0  0  0  0  0  0  0  0
   91.4730  118.1450  115.0110 C   0  0  1  0  0  0  0  0  0  0  0  0
   93.0270  122.6900  116.8450 H   0  0  0  0  0  0  0  0  0  0  0  0
   93.5920  121.2780  118.5470 H   0  0  0  0  0  0  0  0  0  0  0  0
   91.9400  121.1440  119.2360 H   0  0  0  0  0  0  0  0  0  0  0  0
   91.3900  119.3730  117.8900 H   0  0  0  0  0  0  0  0  0  0  0  0
   93.1250  119.3180  117.3870 H   0  0  0  0  0  0  0  0  0  0  0  0
   92.8030  120.7170  115.5600 H   0  0  0  0  0  0  0  0  0  0  0  0
   89.9880  119.5490  115.5250 H   0  0  0  0  0  0  0  0  0  0  0  0
   91.9010  119.9210  113.2000 H   0  0  0  0  0  0  0  0  0  0  0  0
   90.6070  122.3250  112.8910 H   0  0  0  0  0  0  0  0  0  0  0  0
   92.2500  122.0280  113.4070 H   0  0  0  0  0  0  0  0  0  0  0  0
   89.9060  123.0380  114.9540 H   0  0  0  0  0  0  0  0  0  0  0  0
   90.1080  121.0640  111.1520 H   0  0  0  0  0  0  0  0  0  0  0  0
   91.0060  119.5290  111.0590 H   0  0  0  0  0  0  0  0  0  0  0  0
   89.3760  119.2780  109.4180 H   0  0  0  0  0  0  0  0  0  0  0  0
   88.1110  120.1400  110.3320 H   0  0  0  0  0  0  0  0  0  0  0  0
   87.4060  118.2310  111.4870 H   0  0  0  0  0  0  0  0  0  0  0  0
   90.2320  117.0840  111.2320 H   0  0  0  0  0  0  0  0  0  0  0  0
   88.8690  116.3420  112.1250 H   0  0  0  0  0  0  0  0  0  0  0  0
   88.8830  117.9240  113.8490 H   0  0  0  0  0  0  0  0  0  0  0  0
   90.8200  116.4040  113.8780 H   0  0  0  0  0  0  0  0  0  0  0  0
   91.7900  117.5600  112.9270 H   0  0  0  0  0  0  0  0  0  0  0  0
   91.0140  117.5870  115.8570 H   0  0  0  0  0  0  0  0  0  0  0  0
   89.7030  121.6620  116.9870 C   0  0  0  0  0  0  0  0  0  0  0  0
   89.7780  121.1050  117.9430 H   0  0  0  0  0  0  0  0  0  0  0  0
   89.0000  121.1260  116.3190 H   0  0  0  0  0  0  0  0  0  0  0  0
   89.2420  122.6260  117.2690 H   0  0  0  0  0  0  0  0  0  0  0  0
   88.4630  120.3900  113.3090 C   0  0  0  0  0  0  0  0  0  0  0  0
   87.6700  120.2810  112.5420 H   0  0  0  0  0  0  0  0  0  0  0  0
   88.0560  119.9670  114.2440 H   0  0  0  0  0  0  0  0  0  0  0  0
   88.6090  121.4690  113.5040 H   0  0  0  0  0  0  0  0  0  0  0  0
   91.6630  123.7390  118.1730 C   0  0  2  0  0  0  0  0  0  0  0  0
   90.5530  123.7420  118.2030 H   0  0  0  0  0  0  0  0  0  0  0  0
   92.0730  124.9780  117.3530 C   0  0  0  0  0  0  0  0  0  0  0  0
   92.7810  124.7130  116.5440 H   0  0  0  0  0  0  0  0  0  0  0  0
   92.5880  125.7190  118.0020 H   0  0  0  0  0  0  0  0  0  0  0  0
   91.1770  125.4600  116.9040 H   0  0  0  0  0  0  0  0  0  0  0  0
   92.2010  123.8670  119.6300 C   0  0  0  0  0  0  0  0  0  0  0  0
   92.3920  122.8520  120.0420 H   0  0  0  0  0  0  0  0  0  0  0  0
   91.4540  124.3360  120.2980 H   0  0  0  0  0  0  0  0  0  0  0  0
   93.5020  124.6820  119.7480 C   0  0  0  0  0  0  0  0  0  0  0  0
   93.4540  125.5260  119.0270 H   0  0  0  0  0  0  0  0  0  0  0  0
   93.6050  125.1300  120.7580 H   0  0  0  0  0  0  0  0  0  0  0  0
   94.7100  123.8590  119.4220 C   0  0  0  0  0  0  0  0  0  0  0  0
   95.0500  122.9060  120.1710 O   0  0  0  0  0  1  0  0  0  0  0  0
   95.4460  124.1290  118.2750 O   0  0  0  0  0  0  0  0  0  0  0  0
   91.8010  123.7860  115.0140 O   0  0  0  0  0  0  0  0  0  0  0  0
   91.8480  124.1180  115.9490 H   0  0  0  0  0  0  0  0  0  0  0  0
   88.0450  117.2440  109.8080 O   0  0  0  0  0  0  0  0  0  0  0  0
   88.8140  117.3170  109.1830 H   0  0  0  0  0  0  0  0  0  0  0  0
   92.8680  118.0050  115.1360 O   0  0  0  0  0  0  0  0  0  0  0  0
   93.2960  118.7770  114.6820 H   0  0  0  0  0  0  0  0  0  0  0  0
  1 18  1  6  0  0  0
  1 48  1  0  0  0  0
  1  2  1  0  0  0  0
  2 19  1  0  0  0  0
  2 20  1  0  0  0  0
  3 21  1  0  0  0  0
  3  2  1  0  0  0  0
  4 23  1  6  0  0  0
  4  9  1  0  0  0  0
  4  3  1  0  0  0  0
  5 24  1  1  0  0  0
  5  4  1  0  0  0  0
  6 25  1  6  0  0  0
  6  5  1  0  0  0  0
  7  6  1  0  0  0  0
  7  8  1  0  0  0  0
  8 28  1  6  0  0  0
  8 63  1  0  0  0  0
  8  9  1  0  0  0  0
  9 40  1  1  0  0  0
  9  1  1  0  0  0  0
 10 15  1  0  0  0  0
 10 44  1  1  0  0  0
 10  6  1  0  0  0  0
 11 10  1  0  0  0  0
 12 13  1  0  0  0  0
 12 11  1  0  0  0  0
 13 33  1  1  0  0  0
 13 14  1  0  0  0  0
 14 35  1  0  0  0  0
 14 15  1  0  0  0  0
 15 16  1  0  0  0  0
 15 36  1  1  0  0  0
 16 37  1  0  0  0  0
 16 17  1  0  0  0  0
 17  5  1  0  0  0  0
 17 67  1  0  0  0  0
 17 39  1  1  0  0  0
 22  3  1  0  0  0  0
 26  7  1  0  0  0  0
 27  7  1  0  0  0  0
 29 11  1  0  0  0  0
 30 11  1  0  0  0  0
 31 12  1  0  0  0  0
 32 12  1  0  0  0  0
 34 14  1  0  0  0  0
 38 16  1  0  0  0  0
 40 43  1  0  0  0  0
 40 41  1  0  0  0  0
 42 40  1  0  0  0  0
 44 47  1  0  0  0  0
 44 46  1  0  0  0  0
 45 44  1  0  0  0  0
 48 49  1  1  0  0  0
 48 54  1  0  0  0  0
 50 52  1  0  0  0  0
 50 48  1  0  0  0  0
 51 50  1  0  0  0  0
 53 50  1  0  0  0  0
 54 57  1  0  0  0  0
 54 55  1  0  0  0  0
 54 56  1  0  0  0  0
 57 59  1  0  0  0  0
 58 57  1  0  0  0  0
 60 57  1  0  0  0  0
 60 61  1  0  0  0  0
 62 60  2  0  0  0  0
 63 64  1  0  0  0  0
 65 13  1  0  0  0  0
 66 65  1  0  0  0  0
 68 67  1  0  0  0  0
M  END
>  <MODEL>
1

>  <REMARK>
 VINA RESULT:      -9.6      0.000      0.000
  Name = CA
  10 active torsions:
  status: ('A' for Active; 'I' for Inactive)
    1  A    between atoms: C_1  and  C_2
    2  A    between atoms: C_2  and  C_3
    3  A    between atoms: C_2  and  C_8
    4  A    between atoms: C_3  and  C_4
    5  A    between atoms: C_4  and  C_5
    6  A    between atoms: C_15  and  O_16
    7  A    between atoms: C_17  and  C_18
    8  A    between atoms: C_19  and  C_20
    9  A    between atoms: C_23  and  O_24
   10  A    between atoms: C_28  and  O_29
                            x       y       z     vdW  Elec       q    Type
                         _______ _______ _______ _____ _____    ______ ____

>  <TORSDO>
F 10

>  <vina_affinity>
-9.6

>  <vina_rmsd_lb>
0.000

>  <vina_rmsd_ub>
0.000

$$$$
CA
 OpenBabel09042222203D

 68 71  0  0  1  0  0  0  0  0999 V2000
   93.7490  123.8100  117.2410 C   0  0  1  0  0  0  0  0  0  0  0  0
   93.6630  124.6230  115.9220 C   0  0  0  0  0  0  0  0  0  0  0  0
   92.9260  123.7280  114.9110 C   0  0  0  0  0  0  0  0  0  0  0  0
   92.4680  122.5250  115.7320 C   0  0  1  0  0  0  0  0  0  0  0  0
   92.1420  121.2070  115.0140 C   0  0  1  0  0  0  0  0  0  0  0  0
   91.4490  120.2390  116.0150 C   0  0  2  0  0  0  0  0  0  0  0  0
   91.7780  120.4950  117.5380 C   0  0  0  0  0  0  0  0  0  0  0  0
   93.0490  121.3230  117.9140 C   0  0  1  0  0  0  0  0  0  0  0  0
   93.5570  122.3250  116.8080 C   0  0  2  0  0  0  0  0  0  0  0  0
   91.5430  118.7550  115.4890 C   0  0  1  0  0  0  0  0  0  0  0  0
   90.4740  117.8770  116.2040 C   0  0  0  0  0  0  0  0  0  0  0  0
   90.4520  116.4080  115.7240 C   0  0  0  0  0  0  0  0  0  0  0  0
   90.7600  116.2280  114.2200 C   0  0  2  0  0  0  0  0  0  0  0  0
   90.4510  117.5010  113.4340 C   0  0  0  0  0  0  0  0  0  0  0  0
   91.2790  118.7270  113.9130 C   0  0  1  0  0  0  0  0  0  0  0  0
   90.5700  120.0070  113.3730 C   0  0  0  0  0  0  0  0  0  0  0  0
   91.2940  121.3340  113.7210 C   0  0  1  0  0  0  0  0  0  0  0  0
   92.8170  124.0760  117.7940 H   0  0  0  0  0  0  0  0  0  0  0  0
   93.1000  125.5680  116.0910 H   0  0  0  0  0  0  0  0  0  0  0  0
   94.6530  124.8860  115.4990 H   0  0  0  0  0  0  0  0  0  0  0  0
   93.6090  123.4100  114.0920 H   0  0  0  0  0  0  0  0  0  0  0  0
   92.0620  124.2670  114.4680 H   0  0  0  0  0  0  0  0  0  0  0  0
   91.5250  122.8560  116.2340 H   0  0  0  0  0  0  0  0  0  0  0  0
   93.0910  120.7640  114.6640 H   0  0  0  0  0  0  0  0  0  0  0  0
   90.3650  120.4900  115.9670 H   0  0  0  0  0  0  0  0  0  0  0  0
   91.8020  119.5490  118.1110 H   0  0  0  0  0  0  0  0  0  0  0  0
   90.9090  121.0450  117.9660 H   0  0  0  0  0  0  0  0  0  0  0  0
   93.8530  120.5730  118.1110 H   0  0  0  0  0  0  0  0  0  0  0  0
   90.6230  117.8700  117.3030 H   0  0  0  0  0  0  0  0  0  0  0  0
   89.4670  118.3150  116.0230 H   0  0  0  0  0  0  0  0  0  0  0  0
   89.4470  115.9900  115.9550 H   0  0  0  0  0  0  0  0  0  0  0  0
   91.1850  115.8150  116.3130 H   0  0  0  0  0  0  0  0  0  0  0  0
   91.8370  115.9910  114.0730 H   0  0  0  0  0  0  0  0  0  0  0  0
   89.3610  117.7040  113.5290 H   0  0  0  0  0  0  0  0  0  0  0  0
   90.6570  117.3230  112.3550 H   0  0  0  0  0  0  0  0  0  0  0  0
   92.2610  118.6760  113.3910 H   0  0  0  0  0  0  0  0  0  0  0  0
   90.4700  119.9380  112.2680 H   0  0  0  0  0  0  0  0  0  0  0  0
   89.5350  120.0350  113.7840 H   0  0  0  0  0  0  0  0  0  0  0  0
   91.9910  121.5670  112.8860 H   0  0  0  0  0  0  0  0  0  0  0  0
   94.8940  121.7640  116.2230 C   0  0  0  0  0  0  0  0  0  0  0  0
   94.8380  120.6620  116.1200 H   0  0  0  0  0  0  0  0  0  0  0  0
   95.7750  122.0190  116.8450 H   0  0  0  0  0  0  0  0  0  0  0  0
   95.0840  122.1240  115.1950 H   0  0  0  0  0  0  0  0  0  0  0  0
   92.9610  118.1900  115.8040 C   0  0  0  0  0  0  0  0  0  0  0  0
   92.9130  117.1460  116.1710 H   0  0  0  0  0  0  0  0  0  0  0  0
   93.6180  118.1820  114.9170 H   0  0  0  0  0  0  0  0  0  0  0  0
   93.4860  118.7990  116.5630 H   0  0  0  0  0  0  0  0  0  0  0  0
   94.9520  124.1400  118.2000 C   0  0  2  0  0  0  0  0  0  0  0  0
   95.4420  123.1770  118.4550 H   0  0  0  0  0  0  0  0  0  0  0  0
   94.4160  124.7120  119.5280 C   0  0  0  0  0  0  0  0  0  0  0  0
   94.9110  125.6690  119.7870 H   0  0  0  0  0  0  0  0  0  0  0  0
   94.6190  124.0080  120.3630 H   0  0  0  0  0  0  0  0  0  0  0  0
   93.3190  124.8800  119.4620 H   0  0  0  0  0  0  0  0  0  0  0  0
   96.0240  125.1030  117.6050 C   0  0  0  0  0  0  0  0  0  0  0  0
   95.8500  125.2170  116.5130 H   0  0  0  0  0  0  0  0  0  0  0  0
   97.0450  124.6880  117.7130 H   0  0  0  0  0  0  0  0  0  0  0  0
   96.0270  126.5060  118.2370 C   0  0  0  0  0  0  0  0  0  0  0  0
   95.0900  127.0270  117.9410 H   0  0  0  0  0  0  0  0  0  0  0  0
   96.0230  126.4490  119.3450 H   0  0  0  0  0  0  0  0  0  0  0  0
   97.1850  127.3310  117.7660 C   0  0  0  0  0  0  0  0  0  0  0  0
   97.9950  126.8640  116.9230 O   0  0  0  0  0  0  0  0  0  0  0  0
   97.3560  128.6250  118.2410 O   0  0  0  0  0  1  0  0  0  0  0  0
   92.8110  122.0040  119.1230 O   0  0  0  0  0  0  0  0  0  0  0  0
   93.2500  122.8920  119.0510 H   0  0  0  0  0  0  0  0  0  0  0  0
   89.9950  115.1730  113.6980 O   0  0  0  0  0  0  0  0  0  0  0  0
   89.0430  115.4520  113.7610 H   0  0  0  0  0  0  0  0  0  0  0  0
   90.3660  122.3910  113.7890 O   0  0  0  0  0  0  0  0  0  0  0  0
   89.7440  122.3030  113.0210 H   0  0  0  0  0  0  0  0  0  0  0  0
  1 18  1  1  0  0  0
  1 48  1  0  0  0  0
  2 19  1  0  0  0  0
  2  1  1  0  0  0  0
  3  4  1  0  0  0  0
  3  2  1  0  0  0  0
  4 23  1  1  0  0  0
  4  9  1  0  0  0  0
  5 24  1  6  0  0  0
  5  4  1  0  0  0  0
  5  6  1  0  0  0  0
  6 25  1  6  0  0  0
  6  7  1  0  0  0  0
  7  8  1  0  0  0  0
  7 27  1  0  0  0  0
  7 26  1  0  0  0  0
  8 28  1  1  0  0  0
  8 63  1  0  0  0  0
  9 40  1  6  0  0  0
  9  1  1  0  0  0  0
  9  8  1  0  0  0  0
 10 44  1  1  0  0  0
 10  6  1  0  0  0  0
 10 11  1  0  0  0  0
 11 29  1  0  0  0  0
 12 31  1  0  0  0  0
 12 11  1  0  0  0  0
 12 32  1  0  0  0  0
 13 33  1  6  0  0  0
 13 12  1  0  0  0  0
 14 34  1  0  0  0  0
 14 15  1  0  0  0  0
 14 13  1  0  0  0  0
 15 36  1  6  0  0  0
 15 10  1  0  0  0  0
 16 17  1  0  0  0  0
 16 38  1  0  0  0  0
 16 15  1  0  0  0  0
 17 39  1  6  0  0  0
 17 67  1  0  0  0  0
 17  5  1  0  0  0  0
 20  2  1  0  0  0  0
 21  3  1  0  0  0  0
 22  3  1  0  0  0  0
 30 11  1  0  0  0  0
 35 14  1  0  0  0  0
 37 16  1  0  0  0  0
 40 42  1  0  0  0  0
 41 40  1  0  0  0  0
 43 40  1  0  0  0  0
 44 45  1  0  0  0  0
 44 47  1  0  0  0  0
 46 44  1  0  0  0  0
 48 49  1  1  0  0  0
 48 50  1  0  0  0  0
 50 51  1  0  0  0  0
 50 52  1  0  0  0  0
 53 50  1  0  0  0  0
 54 56  1  0  0  0  0
 54 48  1  0  0  0  0
 54 57  1  0  0  0  0
 55 54  1  0  0  0  0
 57 59  1  0  0  0  0
 58 57  1  0  0  0  0
 60 57  1  0  0  0  0
 60 62  1  0  0  0  0
 61 60  2  0  0  0  0
 64 63  1  0  0  0  0
 65 66  1  0  0  0  0
 65 13  1  0  0  0  0
 68 67  1  0  0  0  0
M  END
>  <MODEL>
2

>  <REMARK>
 VINA RESULT:      -9.5      2.328      4.085
  Name = CA
  10 active torsions:
  status: ('A' for Active; 'I' for Inactive)
    1  A    between atoms: C_1  and  C_2
    2  A    between atoms: C_2  and  C_3
    3  A    between atoms: C_2  and  C_8
    4  A    between atoms: C_3  and  C_4
    5  A    between atoms: C_4  and  C_5
    6  A    between atoms: C_15  and  O_16
    7  A    between atoms: C_17  and  C_18
    8  A    between atoms: C_19  and  C_20
    9  A    between atoms: C_23  and  O_24
   10  A    between atoms: C_28  and  O_29
                            x       y       z     vdW  Elec       q    Type
                         _______ _______ _______ _____ _____    ______ ____

>  <TORSDO>
F 10

>  <vina_affinity>
-9.5

>  <vina_rmsd_lb>
2.328

>  <vina_rmsd_ub>
4.085

$$$$
DCA
 OpenBabel09042222203D

 67 70  0  0  1  0  0  0  0  0999 V2000
   90.1460  119.5050  113.3490 C   0  0  1  0  0  0  0  0  0  0  0  0
   89.1640  119.0220  114.4550 C   0  0  0  0  0  0  0  0  0  0  0  0
   89.7700  119.4330  115.8030 C   0  0  0  0  0  0  0  0  0  0  0  0
   90.8870  120.3950  115.4280 C   0  0  1  0  0  0  0  0  0  0  0  0
   91.9380  120.7400  116.5090 C   0  0  2  0  0  0  0  0  0  0  0  0
   91.2350  121.3400  117.7610 C   0  0  0  0  0  0  0  0  0  0  0  0
   92.1180  122.3150  118.5620 C   0  0  0  0  0  0  0  0  0  0  0  0
   93.6050  121.9370  118.4450 C   0  0  2  0  0  0  0  0  0  0  0  0
   94.4730  122.6520  119.5140 C   0  0  0  0  0  0  0  0  0  0  0  0
   94.8660  124.0860  119.1480 C   0  0  1  0  0  0  0  0  0  0  0  0
   95.5340  124.1180  117.7710 C   0  0  0  0  0  0  0  0  0  0  0  0
   94.6030  123.5560  116.6940 C   0  0  0  0  0  0  0  0  0  0  0  0
   94.1310  122.0930  116.9650 C   0  0  2  0  0  0  0  0  0  0  0  0
   92.9710  121.7560  115.9250 C   0  0  1  0  0  0  0  0  0  0  0  0
   93.4880  121.3700  114.5000 C   0  0  0  0  0  0  0  0  0  0  0  0
   92.3660  120.9680  113.5070 C   0  0  1  0  0  0  0  0  0  0  0  0
   91.4720  119.8420  114.1140 C   0  0  2  0  0  0  0  0  0  0  0  0
   89.7180  120.4780  113.0290 H   0  0  0  0  0  0  0  0  0  0  0  0
   88.1730  119.5090  114.3180 H   0  0  0  0  0  0  0  0  0  0  0  0
   88.9940  117.9310  114.4520 H   0  0  0  0  0  0  0  0  0  0  0  0
   89.0100  119.9250  116.4480 H   0  0  0  0  0  0  0  0  0  0  0  0
   90.1820  118.5470  116.3340 H   0  0  0  0  0  0  0  0  0  0  0  0
   90.3680  121.3580  115.1950 H   0  0  0  0  0  0  0  0  0  0  0  0
   92.4670  119.8200  116.8340 H   0  0  0  0  0  0  0  0  0  0  0  0
   90.9240  120.5030  118.4260 H   0  0  0  0  0  0  0  0  0  0  0  0
   90.3090  121.8880  117.4780 H   0  0  0  0  0  0  0  0  0  0  0  0
   91.7930  122.2940  119.6260 H   0  0  0  0  0  0  0  0  0  0  0  0
   91.9610  123.3500  118.1860 H   0  0  0  0  0  0  0  0  0  0  0  0
   93.6510  120.8580  118.7190 H   0  0  0  0  0  0  0  0  0  0  0  0
   95.4040  122.0660  119.6720 H   0  0  0  0  0  0  0  0  0  0  0  0
   93.9510  122.6540  120.4950 H   0  0  0  0  0  0  0  0  0  0  0  0
   95.6030  124.4390  119.9060 H   0  0  0  0  0  0  0  0  0  0  0  0
   95.7940  125.1670  117.5140 H   0  0  0  0  0  0  0  0  0  0  0  0
   96.4850  123.5440  117.7970 H   0  0  0  0  0  0  0  0  0  0  0  0
   93.7300  124.2400  116.6200 H   0  0  0  0  0  0  0  0  0  0  0  0
   95.1280  123.6120  115.7170 H   0  0  0  0  0  0  0  0  0  0  0  0
   92.3800  122.6870  115.7610 H   0  0  0  0  0  0  0  0  0  0  0  0
   94.0470  122.2300  114.0730 H   0  0  0  0  0  0  0  0  0  0  0  0
   94.2080  120.5320  114.5470 H   0  0  0  0  0  0  0  0  0  0  0  0
   92.8620  120.5890  112.5900 H   0  0  0  0  0  0  0  0  0  0  0  0
   95.3370  121.1270  116.7930 C   0  0  0  0  0  0  0  0  0  0  0  0
   95.0910  120.3210  116.0690 H   0  0  0  0  0  0  0  0  0  0  0  0
   96.2430  121.6630  116.4400 H   0  0  0  0  0  0  0  0  0  0  0  0
   95.6120  120.6400  117.7500 H   0  0  0  0  0  0  0  0  0  0  0  0
   92.3240  118.5560  114.3400 C   0  0  0  0  0  0  0  0  0  0  0  0
   93.2030  118.5600  113.6650 H   0  0  0  0  0  0  0  0  0  0  0  0
   91.7320  117.6340  114.1750 H   0  0  0  0  0  0  0  0  0  0  0  0
   92.7390  118.4780  115.3610 H   0  0  0  0  0  0  0  0  0  0  0  0
   90.1170  118.6030  112.0550 C   0  0  2  0  0  0  0  0  0  0  0  0
   91.1600  118.2280  111.9430 H   0  0  0  0  0  0  0  0  0  0  0  0
   89.8130  119.3180  110.7190 C   0  0  0  0  0  0  0  0  0  0  0  0
   90.0820  118.7200  109.8290 H   0  0  0  0  0  0  0  0  0  0  0  0
   90.3100  120.3040  110.6560 H   0  0  0  0  0  0  0  0  0  0  0  0
   88.7220  119.5140  110.6510 H   0  0  0  0  0  0  0  0  0  0  0  0
   89.2220  117.3440  112.1680 C   0  0  0  0  0  0  0  0  0  0  0  0
   88.7980  117.2560  113.1860 H   0  0  0  0  0  0  0  0  0  0  0  0
   88.3540  117.4730  111.4840 H   0  0  0  0  0  0  0  0  0  0  0  0
   89.9300  116.0420  111.7610 C   0  0  0  0  0  0  0  0  0  0  0  0
   89.2620  115.4380  111.1100 H   0  0  0  0  0  0  0  0  0  0  0  0
   90.8590  116.2540  111.1990 H   0  0  0  0  0  0  0  0  0  0  0  0
   90.2780  115.2360  112.9730 C   0  0  0  0  0  0  0  0  0  0  0  0
   90.7610  114.0770  112.8470 O   0  0  0  0  0  0  0  0  0  0  0  0
   90.1040  115.7760  114.2420 O   0  0  0  0  0  1  0  0  0  0  0  0
   93.7370  124.9180  119.1730 O   0  0  0  0  0  0  0  0  0  0  0  0
   93.9660  125.6950  119.7480 H   0  0  0  0  0  0  0  0  0  0  0  0
   91.5980  122.1010  113.1780 O   0  0  0  0  0  0  0  0  0  0  0  0
   92.0830  122.8920  113.5320 H   0  0  0  0  0  0  0  0  0  0  0  0
  1 18  1  6  0  0  0
  1 17  1  0  0  0  0
  1  2  1  0  0  0  0
  2  3  1  0  0  0  0
  3 22  1  0  0  0  0
  3 21  1  0  0  0  0
  4 23  1  6  0  0  0
  4  3  1  0  0  0  0
  4  5  1  0  0  0  0
  5 24  1  1  0  0  0
  5  6  1  0  0  0  0
  6 25  1  0  0  0  0
  6  7  1  0  0  0  0
  7 27  1  0  0  0  0
  8  7  1  0  0  0  0
  8 29  1  1  0  0  0
  8  9  1  0  0  0  0
  9 30  1  0  0  0  0
  9 31  1  0  0  0  0
 10 64  1  0  0  0  0
 10  9  1  0  0  0  0
 10 32  1  1  0  0  0
 11 34  1  0  0  0  0
 11 10  1  0  0  0  0
 12 13  1  0  0  0  0
 12 11  1  0  0  0  0
 13 41  1  6  0  0  0
 13  8  1  0  0  0  0
 14 37  1  6  0  0  0
 14  5  1  0  0  0  0
 14 13  1  0  0  0  0
 15 39  1  0  0  0  0
 15 14  1  0  0  0  0
 16 40  1  6  0  0  0
 16 17  1  0  0  0  0
 16 15  1  0  0  0  0
 17 45  1  1  0  0  0
 17  4  1  0  0  0  0
 19  2  1  0  0  0  0
 20  2  1  0  0  0  0
 26  6  1  0  0  0  0
 28  7  1  0  0  0  0
 33 11  1  0  0  0  0
 35 12  1  0  0  0  0
 36 12  1  0  0  0  0
 38 15  1  0  0  0  0
 41 44  1  0  0  0  0
 42 41  1  0  0  0  0
 43 41  1  0  0  0  0
 45 48  1  0  0  0  0
 46 45  1  0  0  0  0
 47 45  1  0  0  0  0
 49 50  1  6  0  0  0
 49 55  1  0  0  0  0
 49  1  1  0  0  0  0
 51 49  1  0  0  0  0
 52 51  1  0  0  0  0
 53 51  1  0  0  0  0
 54 51  1  0  0  0  0
 55 56  1  0  0  0  0
 57 55  1  0  0  0  0
 58 55  1  0  0  0  0
 58 61  1  0  0  0  0
 59 58  1  0  0  0  0
 60 58  1  0  0  0  0
 61 63  1  0  0  0  0
 62 61  2  0  0  0  0
 64 65  1  0  0  0  0
 66 16  1  0  0  0  0
 66 67  1  0  0  0  0
M  END
>  <MODEL>
1

>  <REMARK>
 VINA RESULT:      -9.2      0.000      0.000
  Name = DCA
  9 active torsions:
  status: ('A' for Active; 'I' for Inactive)
    1  A    between atoms: C_1  and  C_2
    2  A    between atoms: C_2  and  C_3
    3  A    between atoms: C_2  and  C_8
    4  A    between atoms: C_3  and  C_4
    5  A    between atoms: C_4  and  C_5
    6  A    between atoms: C_17  and  O_18
    7  A    between atoms: C_21  and  C_22
    8  A    between atoms: C_25  and  O_26
    9  A    between atoms: C_27  and  C_28
                            x       y       z     vdW  Elec       q    Type
                         _______ _______ _______ _____ _____    ______ ____

>  <TORSDO>
F 9

>  <vina_affinity>
-9.2

>  <vina_rmsd_lb>
0.000

>  <vina_rmsd_ub>
0.000

$$$$
DCA
 OpenBabel09042222203D

 67 70  0  0  1  0  0  0  0  0999 V2000
   92.7160  121.1380  116.7870 C   0  0  1  0  0  0  0  0  0  0  0  0
   92.5130  121.0480  118.3260 C   0  0  0  0  0  0  0  0  0  0  0  0
   93.3710  122.1530  118.9560 C   0  0  0  0  0  0  0  0  0  0  0  0
   93.7760  123.0240  117.7780 C   0  0  1  0  0  0  0  0  0  0  0  0
   94.9290  124.0340  117.9860 C   0  0  2  0  0  0  0  0  0  0  0  0
   94.5840  125.0000  119.1570 C   0  0  0  0  0  0  0  0  0  0  0  0
   95.2390  126.3880  119.0290 C   0  0  0  0  0  0  0  0  0  0  0  0
   96.5840  126.2980  118.2880 C   0  0  2  0  0  0  0  0  0  0  0  0
   97.4330  127.5850  118.4650 C   0  0  0  0  0  0  0  0  0  0  0  0
   97.0500  128.7250  117.5180 C   0  0  1  0  0  0  0  0  0  0  0  0
   97.0670  128.2380  116.0670 C   0  0  0  0  0  0  0  0  0  0  0  0
   96.1010  127.0670  115.8680 C   0  0  0  0  0  0  0  0  0  0  0  0
   96.3930  125.8420  116.7890 C   0  0  2  0  0  0  0  0  0  0  0  0
   95.1620  124.8370  116.6670 C   0  0  1  0  0  0  0  0  0  0  0  0
   95.2010  123.9370  115.3870 C   0  0  0  0  0  0  0  0  0  0  0  0
   94.0450  122.9070  115.3040 C   0  0  1  0  0  0  0  0  0  0  0  0
   93.9810  122.0460  116.6040 C   0  0  2  0  0  0  0  0  0  0  0  0
   91.8490  121.7420  116.4460 H   0  0  0  0  0  0  0  0  0  0  0  0
   91.4410  121.2090  118.5760 H   0  0  0  0  0  0  0  0  0  0  0  0
   92.8040  120.0730  118.7570 H   0  0  0  0  0  0  0  0  0  0  0  0
   92.7890  122.7300  119.7070 H   0  0  0  0  0  0  0  0  0  0  0  0
   94.2710  121.7190  119.4470 H   0  0  0  0  0  0  0  0  0  0  0  0
   92.8710  123.6430  117.5560 H   0  0  0  0  0  0  0  0  0  0  0  0
   95.8600  123.4970  118.2620 H   0  0  0  0  0  0  0  0  0  0  0  0
   94.9120  124.5300  120.1110 H   0  0  0  0  0  0  0  0  0  0  0  0
   93.4860  125.1580  119.2360 H   0  0  0  0  0  0  0  0  0  0  0  0
   95.3840  126.8050  120.0510 H   0  0  0  0  0  0  0  0  0  0  0  0
   94.5520  127.0720  118.4850 H   0  0  0  0  0  0  0  0  0  0  0  0
   97.1570  125.5060  118.8230 H   0  0  0  0  0  0  0  0  0  0  0  0
   98.5030  127.3360  118.2940 H   0  0  0  0  0  0  0  0  0  0  0  0
   97.3720  127.9440  119.5150 H   0  0  0  0  0  0  0  0  0  0  0  0
   97.8140  129.5300  117.6290 H   0  0  0  0  0  0  0  0  0  0  0  0
   96.7670  129.0720  115.3970 H   0  0  0  0  0  0  0  0  0  0  0  0
   98.0980  127.9420  115.7770 H   0  0  0  0  0  0  0  0  0  0  0  0
   95.0730  127.4510  116.0430 H   0  0  0  0  0  0  0  0  0  0  0  0
   96.1420  126.7600  114.8010 H   0  0  0  0  0  0  0  0  0  0  0  0
   94.2360  125.4460  116.5480 H   0  0  0  0  0  0  0  0  0  0  0  0
   95.1610  124.5870  114.4870 H   0  0  0  0  0  0  0  0  0  0  0  0
   96.1530  123.3790  115.3180 H   0  0  0  0  0  0  0  0  0  0  0  0
   94.2580  122.2470  114.4370 H   0  0  0  0  0  0  0  0  0  0  0  0
   97.7170  125.1650  116.3350 C   0  0  0  0  0  0  0  0  0  0  0  0
   98.3530  124.9220  117.2130 H   0  0  0  0  0  0  0  0  0  0  0  0
   97.5250  124.2330  115.7630 H   0  0  0  0  0  0  0  0  0  0  0  0
   98.3090  125.8260  115.6700 H   0  0  0  0  0  0  0  0  0  0  0  0
   95.2890  121.2110  116.7500 C   0  0  0  0  0  0  0  0  0  0  0  0
   96.1690  121.8830  116.7640 H   0  0  0  0  0  0  0  0  0  0  0  0
   95.3990  120.4700  115.9330 H   0  0  0  0  0  0  0  0  0  0  0  0
   95.3410  120.6390  117.6940 H   0  0  0  0  0  0  0  0  0  0  0  0
   92.5540  119.7490  116.0570 C   0  0  2  0  0  0  0  0  0  0  0  0
   93.5750  119.3010  116.0620 H   0  0  0  0  0  0  0  0  0  0  0  0
   92.1550  119.7920  114.5650 C   0  0  0  0  0  0  0  0  0  0  0  0
   91.1190  120.1370  114.3960 H   0  0  0  0  0  0  0  0  0  0  0  0
   92.2940  118.8110  114.0720 H   0  0  0  0  0  0  0  0  0  0  0  0
   92.8180  120.5060  114.0310 H   0  0  0  0  0  0  0  0  0  0  0  0
   91.6430  118.7360  116.7940 C   0  0  0  0  0  0  0  0  0  0  0  0
   91.7800  118.8120  117.8890 H   0  0  0  0  0  0  0  0  0  0  0  0
   90.5840  119.0160  116.5970 H   0  0  0  0  0  0  0  0  0  0  0  0
   91.8220  117.2840  116.3240 C   0  0  0  0  0  0  0  0  0  0  0  0
   92.4850  117.2560  115.4320 H   0  0  0  0  0  0  0  0  0  0  0  0
   92.2830  116.6640  117.1160 H   0  0  0  0  0  0  0  0  0  0  0  0
   90.4990  116.6870  115.9580 C   0  0  0  0  0  0  0  0  0  0  0  0
   89.4290  117.2220  116.3590 O   0  0  0  0  0  1  0  0  0  0  0  0
   90.4440  115.5600  115.1460 O   0  0  0  0  0  0  0  0  0  0  0  0
   95.7870  129.2330  117.8570 O   0  0  0  0  0  0  0  0  0  0  0  0
   95.1770  128.4540  117.9410 H   0  0  0  0  0  0  0  0  0  0  0  0
   92.8280  123.5780  115.0810 O   0  0  0  0  0  0  0  0  0  0  0  0
   92.1540  122.8870  114.8520 H   0  0  0  0  0  0  0  0  0  0  0  0
  1 18  1  6  0  0  0
  1  2  1  0  0  0  0
  2 19  1  0  0  0  0
  2 20  1  0  0  0  0
  2  3  1  0  0  0  0
  3 22  1  0  0  0  0
  3 21  1  0  0  0  0
  4 23  1  6  0  0  0
  4  5  1  0  0  0  0
  4  3  1  0  0  0  0
  5 24  1  1  0  0  0
  5  6  1  0  0  0  0
  6 26  1  0  0  0  0
  6 25  1  0  0  0  0
  7  6  1  0  0  0  0
  7 27  1  0  0  0  0
  8  9  1  0  0  0  0
  8 29  1  1  0  0  0
  8  7  1  0  0  0  0
  9 31  1  0  0  0  0
 10 32  1  1  0  0  0
 10 64  1  0  0  0  0
 10  9  1  0  0  0  0
 11 10  1  0  0  0  0
 12 35  1  0  0  0  0
 12 11  1  0  0  0  0
 12 13  1  0  0  0  0
 13 41  1  6  0  0  0
 13  8  1  0  0  0  0
 14 37  1  6  0  0  0
 14 13  1  0  0  0  0
 14  5  1  0  0  0  0
 15 14  1  0  0  0  0
 16 40  1  6  0  0  0
 16 15  1  0  0  0  0
 16 17  1  0  0  0  0
 17 45  1  1  0  0  0
 17  1  1  0  0  0  0
 17  4  1  0  0  0  0
 28  7  1  0  0  0  0
 30  9  1  0  0  0  0
 33 11  1  0  0  0  0
 34 11  1  0  0  0  0
 36 12  1  0  0  0  0
 38 15  1  0  0  0  0
 39 15  1  0  0  0  0
 41 42  1  0  0  0  0
 43 41  1  0  0  0  0
 44 41  1  0  0  0  0
 45 46  1  0  0  0  0
 45 48  1  0  0  0  0
 47 45  1  0  0  0  0
 49 50  1  1  0  0  0
 49  1  1  0  0  0  0
 49 55  1  0  0  0  0
 51 49  1  0  0  0  0
 52 51  1  0  0  0  0
 53 51  1  0  0  0  0
 54 51  1  0  0  0  0
 55 56  1  0  0  0  0
 57 55  1  0  0  0  0
 58 55  1  0  0  0  0
 58 60  1  0  0  0  0
 59 58  1  0  0  0  0
 61 58  1  0  0  0  0
 61 62  1  0  0  0  0
 63 61  2  0  0  0  0
 64 65  1  0  0  0  0
 66 16  1  0  0  0  0
 67 66  1  0  0  0  0
M  END
>  <MODEL>
2

>  <REMARK>
 VINA RESULT:      -9.0      2.478      4.584
  Name = DCA
  9 active torsions:
  status: ('A' for Active; 'I' for Inactive)
    1  A    between atoms: C_1  and  C_2
    2  A    between atoms: C_2  and  C_3
    3  A    between atoms: C_2  and  C_8
    4  A    between atoms: C_3  and  C_4
    5  A    between atoms: C_4  and  C_5
    6  A    between atoms: C_17  and  O_18
    7  A    between atoms: C_21  and  C_22
    8  A    between atoms: C_25  and  O_26
    9  A    between atoms: C_27  and  C_28
                            x       y       z     vdW  Elec       q    Type
                         _______ _______ _______ _____ _____    ______ ____

>  <TORSDO>
F 9

>  <vina_affinity>
-9.0

>  <vina_rmsd_lb>
2.478

>  <vina_rmsd_ub>
4.584

$$$$
